ELMER SOLVER (v 9.0) STARTED AT: 2026/03/17 16:43:51
ELMER SOLVER (v 9.0) STARTED AT: 2026/03/17 16:43:51
ELMER SOLVER (v 9.0) STARTED AT: 2026/03/17 16:43:51
ELMER SOLVER (v 9.0) STARTED AT: 2026/03/17 16:43:51
ELMER SOLVER (v 9.0) STARTED AT: 2026/03/17 16:43:51
ELMER SOLVER (v 9.0) STARTED AT: 2026/03/17 16:43:51
ELMER SOLVER (v 9.0) STARTED AT: 2026/03/17 16:43:51
ELMER SOLVER (v 9.0) STARTED AT: 2026/03/17 16:43:51
ELMER SOLVER (v 9.0) STARTED AT: 2026/03/17 16:43:51
ELMER SOLVER (v 9.0) STARTED AT: 2026/03/17 16:43:51
ELMER SOLVER (v 9.0) STARTED AT: 2026/03/17 16:43:51
ELMER SOLVER (v 9.0) STARTED AT: 2026/03/17 16:43:51
ELMER SOLVER (v 9.0) STARTED AT: 2026/03/17 16:43:51
ELMER SOLVER (v 9.0) STARTED AT: 2026/03/17 16:43:51
ELMER SOLVER (v 9.0) STARTED AT: 2026/03/17 16:43:51
ELMER SOLVER (v 9.0) STARTED AT: 2026/03/17 16:43:51
ELMER SOLVER (v 9.0) STARTED AT: 2026/03/17 16:43:51
ELMER SOLVER (v 9.0) STARTED AT: 2026/03/17 16:43:51
ELMER SOLVER (v 9.0) STARTED AT: 2026/03/17 16:43:51
ELMER SOLVER (v 9.0) STARTED AT: 2026/03/17 16:43:51
ELMER SOLVER (v 9.0) STARTED AT: 2026/03/17 16:43:51
ELMER SOLVER (v 9.0) STARTED AT: 2026/03/17 16:43:51
ELMER SOLVER (v 9.0) STARTED AT: 2026/03/17 16:43:51
ELMER SOLVER (v 9.0) STARTED AT: 2026/03/17 16:43:51
ELMER SOLVER (v 9.0) STARTED AT: 2026/03/17 16:43:51
ELMER SOLVER (v 9.0) STARTED AT: 2026/03/17 16:43:51
ELMER SOLVER (v 9.0) STARTED AT: 2026/03/17 16:43:51
ELMER SOLVER (v 9.0) STARTED AT: 2026/03/17 16:43:51
ELMER SOLVER (v 9.0) STARTED AT: 2026/03/17 16:43:51
ELMER SOLVER (v 9.0) STARTED AT: 2026/03/17 16:43:51
ELMER SOLVER (v 9.0) STARTED AT: 2026/03/17 16:43:51
ELMER SOLVER (v 9.0) STARTED AT: 2026/03/17 16:43:51
ELMER SOLVER (v 9.0) STARTED AT: 2026/03/17 16:43:51
ELMER SOLVER (v 9.0) STARTED AT: 2026/03/17 16:43:51
ELMER SOLVER (v 9.0) STARTED AT: 2026/03/17 16:43:51
ELMER SOLVER (v 9.0) STARTED AT: 2026/03/17 16:43:51
ELMER SOLVER (v 9.0) STARTED AT: 2026/03/17 16:43:51
ELMER SOLVER (v 9.0) STARTED AT: 2026/03/17 16:43:51
ELMER SOLVER (v 9.0) STARTED AT: 2026/03/17 16:43:51
ELMER SOLVER (v 9.0) STARTED AT: 2026/03/17 16:43:51
ELMER SOLVER (v 9.0) STARTED AT: 2026/03/17 16:43:51
ELMER SOLVER (v 9.0) STARTED AT: 2026/03/17 16:43:51
ELMER SOLVER (v 9.0) STARTED AT: 2026/03/17 16:43:51
ELMER SOLVER (v 9.0) STARTED AT: 2026/03/17 16:43:51
ELMER SOLVER (v 9.0) STARTED AT: 2026/03/17 16:43:51
ELMER SOLVER (v 9.0) STARTED AT: 2026/03/17 16:43:51
ELMER SOLVER (v 9.0) STARTED AT: 2026/03/17 16:43:51
ELMER SOLVER (v 9.0) STARTED AT: 2026/03/17 16:43:51
ELMER SOLVER (v 9.0) STARTED AT: 2026/03/17 16:43:51
ELMER SOLVER (v 9.0) STARTED AT: 2026/03/17 16:43:51
ELMER SOLVER (v 9.0) STARTED AT: 2026/03/17 16:43:51
ELMER SOLVER (v 9.0) STARTED AT: 2026/03/17 16:43:51
ELMER SOLVER (v 9.0) STARTED AT: 2026/03/17 16:43:51
ELMER SOLVER (v 9.0) STARTED AT: 2026/03/17 16:43:51
ELMER SOLVER (v 9.0) STARTED AT: 2026/03/17 16:43:51
ELMER SOLVER (v 9.0) STARTED AT: 2026/03/17 16:43:51
ELMER SOLVER (v 9.0) STARTED AT: 2026/03/17 16:43:51
ELMER SOLVER (v 9.0) STARTED AT: 2026/03/17 16:43:51
ELMER SOLVER (v 9.0) STARTED AT: 2026/03/17 16:43:51
ELMER SOLVER (v 9.0) STARTED AT: 2026/03/17 16:43:51
ELMER SOLVER (v 9.0) STARTED AT: 2026/03/17 16:43:51
ELMER SOLVER (v 9.0) STARTED AT: 2026/03/17 16:43:51
ELMER SOLVER (v 9.0) STARTED AT: 2026/03/17 16:43:51
ELMER SOLVER (v 9.0) STARTED AT: 2026/03/17 16:43:51
ELMER SOLVER (v 9.0) STARTED AT: 2026/03/17 16:43:51
ELMER SOLVER (v 9.0) STARTED AT: 2026/03/17 16:43:51
ELMER SOLVER (v 9.0) STARTED AT: 2026/03/17 16:43:51
ELMER SOLVER (v 9.0) STARTED AT: 2026/03/17 16:43:51
ELMER SOLVER (v 9.0) STARTED AT: 2026/03/17 16:43:51
ELMER SOLVER (v 9.0) STARTED AT: 2026/03/17 16:43:51
ELMER SOLVER (v 9.0) STARTED AT: 2026/03/17 16:43:51
ELMER SOLVER (v 9.0) STARTED AT: 2026/03/17 16:43:51
ELMER SOLVER (v 9.0) STARTED AT: 2026/03/17 16:43:51
ELMER SOLVER (v 9.0) STARTED AT: 2026/03/17 16:43:51
ELMER SOLVER (v 9.0) STARTED AT: 2026/03/17 16:43:51
ELMER SOLVER (v 9.0) STARTED AT: 2026/03/17 16:43:51
ELMER SOLVER (v 9.0) STARTED AT: 2026/03/17 16:43:51
ELMER SOLVER (v 9.0) STARTED AT: 2026/03/17 16:43:51
ELMER SOLVER (v 9.0) STARTED AT: 2026/03/17 16:43:51
ELMER SOLVER (v 9.0) STARTED AT: 2026/03/17 16:43:51
ELMER SOLVER (v 9.0) STARTED AT: 2026/03/17 16:43:51
ELMER SOLVER (v 9.0) STARTED AT: 2026/03/17 16:43:51
ELMER SOLVER (v 9.0) STARTED AT: 2026/03/17 16:43:51
ELMER SOLVER (v 9.0) STARTED AT: 2026/03/17 16:43:51
ELMER SOLVER (v 9.0) STARTED AT: 2026/03/17 16:43:51
ELMER SOLVER (v 9.0) STARTED AT: 2026/03/17 16:43:51
ELMER SOLVER (v 9.0) STARTED AT: 2026/03/17 16:43:51
ELMER SOLVER (v 9.0) STARTED AT: 2026/03/17 16:43:51
ELMER SOLVER (v 9.0) STARTED AT: 2026/03/17 16:43:51
ELMER SOLVER (v 9.0) STARTED AT: 2026/03/17 16:43:51
ELMER SOLVER (v 9.0) STARTED AT: 2026/03/17 16:43:51
ELMER SOLVER (v 9.0) STARTED AT: 2026/03/17 16:43:51
ELMER SOLVER (v 9.0) STARTED AT: 2026/03/17 16:43:51
ELMER SOLVER (v 9.0) STARTED AT: 2026/03/17 16:43:51
ELMER SOLVER (v 9.0) STARTED AT: 2026/03/17 16:43:51
ELMER SOLVER (v 9.0) STARTED AT: 2026/03/17 16:43:51
ELMER SOLVER (v 9.0) STARTED AT: 2026/03/17 16:43:51
ELMER SOLVER (v 9.0) STARTED AT: 2026/03/17 16:43:51
ELMER SOLVER (v 9.0) STARTED AT: 2026/03/17 16:43:51
ELMER SOLVER (v 9.0) STARTED AT: 2026/03/17 16:43:51
ELMER SOLVER (v 9.0) STARTED AT: 2026/03/17 16:43:51
ELMER SOLVER (v 9.0) STARTED AT: 2026/03/17 16:43:51
ELMER SOLVER (v 9.0) STARTED AT: 2026/03/17 16:43:51
ELMER SOLVER (v 9.0) STARTED AT: 2026/03/17 16:43:51
ELMER SOLVER (v 9.0) STARTED AT: 2026/03/17 16:43:51
ELMER SOLVER (v 9.0) STARTED AT: 2026/03/17 16:43:51
ELMER SOLVER (v 9.0) STARTED AT: 2026/03/17 16:43:51
ELMER SOLVER (v 9.0) STARTED AT: 2026/03/17 16:43:51
ELMER SOLVER (v 9.0) STARTED AT: 2026/03/17 16:43:51
ELMER SOLVER (v 9.0) STARTED AT: 2026/03/17 16:43:51
ELMER SOLVER (v 9.0) STARTED AT: 2026/03/17 16:43:51
ELMER SOLVER (v 9.0) STARTED AT: 2026/03/17 16:43:51
ELMER SOLVER (v 9.0) STARTED AT: 2026/03/17 16:43:51
ELMER SOLVER (v 9.0) STARTED AT: 2026/03/17 16:43:51
ELMER SOLVER (v 9.0) STARTED AT: 2026/03/17 16:43:51
ELMER SOLVER (v 9.0) STARTED AT: 2026/03/17 16:43:51
ELMER SOLVER (v 9.0) STARTED AT: 2026/03/17 16:43:51
ELMER SOLVER (v 9.0) STARTED AT: 2026/03/17 16:43:51
ELMER SOLVER (v 9.0) STARTED AT: 2026/03/17 16:43:51
ELMER SOLVER (v 9.0) STARTED AT: 2026/03/17 16:43:51
ELMER SOLVER (v 9.0) STARTED AT: 2026/03/17 16:43:51
ELMER SOLVER (v 9.0) STARTED AT: 2026/03/17 16:43:51
ELMER SOLVER (v 9.0) STARTED AT: 2026/03/17 16:43:51
ELMER SOLVER (v 9.0) STARTED AT: 2026/03/17 16:43:51
ELMER SOLVER (v 9.0) STARTED AT: 2026/03/17 16:43:51
ELMER SOLVER (v 9.0) STARTED AT: 2026/03/17 16:43:51
ELMER SOLVER (v 9.0) STARTED AT: 2026/03/17 16:43:51
ELMER SOLVER (v 9.0) STARTED AT: 2026/03/17 16:43:51
ParCommInit: Initialize #PEs: 128
ParCommInit: Initialize #PEs: 128
MAIN: 
MAIN: =============================================================
MAIN: ElmerSolver finite element software, Welcome!
MAIN: This program is free software licensed under (L)GPL
MAIN: Copyright 1st April 1995 - , CSC - IT Center for Science Ltd.
MAIN: Webpage http://www.csc.fi/elmer, Email elmeradm@csc.fi
MAIN: Version: 9.0 (Rev: afd75d4, Compiled: 2025-09-26)
MAIN:  Running in parallel using 128 tasks.
MAIN:  Running with just one thread per task.
MAIN:  HYPRE library linked in.
MAIN:  MUMPS library linked in.
MAIN:  MMG library linked in.
MAIN:  Lua interpreter linked in.
MAIN: ParCommInit: Initialize #PEs: 128
 Zoltan library linked in.
MAIN: =============================================================
ParCommInit: Initialize #PEs: 128
MAIN: 
MAIN: 
MAIN: -------------------------------------
MAIN: Reading Model: InitialiseT2.sif
LoadInputFile: Scanning input file: InitialiseT2.sif
LoadInputFile: Scanning only size info
LoadInputFile: First time visiting
LoadInputFile: Reading base load of sif file
OpenIncludeFile: Trying to include file: "Initialisation/Dimensional_ICs/bed_dim.xy"
OpenIncludeFile: Trying to include file: "Initialisation/Dimensional_ICs/bed_dim.xy"
OpenIncludeFile: Trying to include file: "Initialisation/Dimensional_ICs/bed_dim.xy"
OpenIncludeFile: Trying to include file: "Initialisation/Dimensional_ICs/zb_dim.xy"
OpenIncludeFile: Trying to include file: "Initialisation/Dimensional_ICs/zb_dim.xy"
OpenIncludeFile: Trying to include file: "Initialisation/Dimensional_ICs/bed_dim.xy"
OpenIncludeFile: Trying to include file: "Initialisation/Dimensional_ICs/zs_dim.xy"
CheckKeyword: Found keyword type assuming suffix 1 for: exported variable 2
CheckKeyword: Found keyword type assuming suffix 1 for: exported variable 2
CheckKeyword: Found keyword type assuming suffix 1 for: exported variable 2
CheckKeyword: Found keyword type assuming suffix 1 for: exported variable 2
CheckKeyword: Found keyword type assuming suffix 1 for: operator 2
CheckKeyword: Found keyword type assuming suffix 1 for: operator 2
OpenIncludeFile: Trying to include file:  SRC/linsys/mumps.sif
CheckKeyword: Found keyword type assuming suffix 1 for: exported variable 2
CheckKeyword: Found keyword type assuming suffix 1 for: exported variable 2
CheckKeyword: Found keyword type assuming suffix 1 for: exported variable 3
CheckKeyword: Found keyword type assuming suffix 1 for: exported variable 3
CheckKeyword: Found keyword type assuming suffix 1 for: exported variable 4
CheckKeyword: Found keyword type assuming suffix 1 for: exported variable 4
CheckKeyword: Found keyword type assuming suffix 1 for: exported variable 5
CheckKeyword: Found keyword type assuming suffix 1 for: exported variable 5
CheckKeyword: Found keyword type assuming suffix 1 for: exported variable 6
CheckKeyword: Found keyword type assuming suffix 1 for: exported variable 6
CheckKeyword: Found keyword type assuming suffix 1 for: exported variable 2
CheckKeyword: Found keyword type assuming suffix 1 for: exported variable 2
CheckKeyword: Found keyword type assuming suffix 1 for: exported variable 2
CheckKeyword: Found keyword type assuming suffix 1 for: exported variable 2
CheckKeyword: Found keyword type assuming suffix 1 for: exported variable 2
CheckKeyword: Found keyword type assuming suffix 1 for: exported variable 2
CheckKeyword: Found keyword type assuming suffix 1 for: exported variable 3
CheckKeyword: Found keyword type assuming suffix 1 for: exported variable 3
CheckKeyword: Found keyword type assuming suffix 1 for: exported variable 4
CheckKeyword: Found keyword type assuming suffix 1 for: exported variable 4
LoadInputFile: Loading input file: InitialiseT2.sif
LoadInputFile: Reading base load of sif file
CheckKeyword:  Unlisted keyword: [gravity norm] in section: [constants]
CheckKeyword:  Unlisted keyword: [fresh water density] in section: [constants]
CheckKeyword:  Unlisted keyword: [water density] in section: [constants]
CheckKeyword:  Unlisted keyword: [ice density] in section: [constants]
CheckKeyword:  Unlisted keyword: [rock density] in section: [constants]
CheckKeyword:  Unlisted keyword: [reference temperature] in section: [constants]
CheckKeyword:  Unlisted keyword: [reference pressure] in section: [constants]
CheckKeyword:  Unlisted keyword: [sea level] in section: [constants]
CheckKeyword:  Unlisted keyword: [preserve baseline] in section: [simulation]
CheckKeyword:  Unlisted keyword: [extruded bc layers] in section: [simulation]
CheckKeyword:  Unlisted keyword: [extruded baseline layer] in section: [simulation]
CheckKeyword:  Unlisted keyword: [restart before initial condition] in section: [simulation]
CheckKeyword:  Unlisted keyword: [bedrock] in section: [initial condition 1]
OpenIncludeFile: Trying to include file: "Initialisation/Dimensional_ICs/bed_dim.xy"
CheckKeyword:  Unlisted keyword: [bedrock] in section: [initial condition 2]
OpenIncludeFile: Trying to include file: "Initialisation/Dimensional_ICs/bed_dim.xy"
CheckKeyword:  Unlisted keyword: [sigma] in section: [initial condition 3]
CheckKeyword:  Unlisted keyword: [bedrock] in section: [initial condition 3]
OpenIncludeFile: Trying to include file: "Initialisation/Dimensional_ICs/bed_dim.xy"
CheckKeyword:  Unlisted keyword: [zb] in section: [initial condition 4]
OpenIncludeFile: Trying to include file: "Initialisation/Dimensional_ICs/zb_dim.xy"
CheckKeyword:  Unlisted keyword: [refzb] in section: [initial condition 4]
OpenIncludeFile: Trying to include file: "Initialisation/Dimensional_ICs/zb_dim.xy"
CheckKeyword:  Unlisted keyword: [bedrock] in section: [initial condition 4]
OpenIncludeFile: Trying to include file: "Initialisation/Dimensional_ICs/bed_dim.xy"
CheckKeyword:  Unlisted keyword: [coldtempmask] in section: [initial condition 4]
CheckKeyword:  Unlisted keyword: [water sheet thickness] in section: [initial condition 4]
CheckKeyword:  Unlisted keyword: [zs] in section: [initial condition 5]
OpenIncludeFile: Trying to include file: "Initialisation/Dimensional_ICs/zs_dim.xy"
CheckKeyword:  Unlisted keyword: [partial vertical meshupdate 1] in section: [body force 1]
CheckKeyword:  Unlisted keyword: [partial vertical meshupdate 2] in section: [body force 1]
CheckKeyword:  Unlisted keyword: [temperature upper limit] in section: [body force 1]
CheckKeyword:  Unlisted keyword: [partial vertical meshupdate 1] in section: [body force 2]
CheckKeyword:  Unlisted keyword: [partial vertical meshupdate 2] in section: [body force 2]
CheckKeyword:  Unlisted keyword: [temperature upper limit] in section: [body force 2]
CheckKeyword:  Unlisted keyword: [temperature upper limit] in section: [body force 3]
CheckKeyword:  Unlisted keyword: [zb accumulation] in section: [body force 4]
CheckKeyword:  Unlisted keyword: [flow solver name] in section: [body force 4]
CheckKeyword:  Unlisted keyword: [temperature upper limit] in section: [body force 4]
CheckKeyword:  Unlisted keyword: [water sheet thickness diffusion source] in section: [body force 4]
CheckKeyword:  Unlisted keyword: [melt source] in section: [body force 4]
CheckKeyword:  Unlisted keyword: [melt rate] in section: [body force 4]
CheckKeyword:  Unlisted keyword: [zs accumulation] in section: [body force 5]
CheckKeyword:  Unlisted keyword: [temperature upper limit] in section: [body force 5]
CheckKeyword:  Unlisted keyword: [heat capacity scaling factor] in section: [material 3]
CheckKeyword:  Unlisted keyword: [heat conductivity scaling factor] in section: [material 3]
CheckKeyword:  Unlisted keyword: [latent heat capacity] in section: [material 3]
CheckKeyword:  Unlisted keyword: [cauchy] in section: [material 3]
CheckKeyword:  Unlisted keyword: [glen allow old keywords] in section: [material 3]
CheckKeyword:  Unlisted keyword: [tm] in section: [material 3]
CheckKeyword:  Unlisted keyword: [max zb] in section: [material 3]
CheckKeyword:  Unlisted keyword: [min zs] in section: [material 3]
CheckKeyword:  Unlisted keyword: [max zs] in section: [material 3]
CheckKeyword:  Unlisted keyword: [temperature upper limit] in section: [material 3]
CheckKeyword:  Unlisted keyword: [water sheet thickness diffusivity] in section: [material 3]
CheckKeyword:  Unlisted keyword: [density water] in section: [material 3]
CheckKeyword:  Unlisted keyword: [bedrock bump height] in section: [material 3]
CheckKeyword:  Unlisted keyword: [cavity spacing] in section: [material 3]
CheckKeyword:  Unlisted keyword: [phi0] in section: [material 3]
CheckKeyword:  Unlisted keyword: [effective pressure] in section: [material 3]
CheckKeyword:  Unlisted keyword: [effective pressure first derivative] in section: [material 3]
CheckKeyword:  Unlisted keyword: [effective pressure second derivative] in section: [material 3]
CheckKeyword:  Unlisted keyword: [hydraulic conductivity derivative] in section: [material 3]
CheckKeyword:  Unlisted keyword: [minimum height] in section: [solver 1]
CheckKeyword:  Unlisted keyword: [mesh update variable] in section: [solver 1]
CheckKeyword: Found keyword type assuming suffix 1 for: exported variable 2
CheckKeyword: Found keyword type assuming suffix 1 for: exported variable 2
CheckKeyword:  Unlisted keyword: [adjust surface] in section: [solver 1]
CheckKeyword:  Unlisted keyword: [toler] in section: [solver 2]
CheckKeyword:  Unlisted keyword: [bedrock variable] in section: [solver 2]
CheckKeyword:  Unlisted keyword: [minimum height] in section: [solver 3]
CheckKeyword:  Unlisted keyword: [mesh update variable] in section: [solver 3]
CheckKeyword: Found keyword type assuming suffix 1 for: exported variable 2
CheckKeyword: Found keyword type assuming suffix 1 for: exported variable 2
CheckKeyword:  Unlisted keyword: [adjust surface] in section: [solver 3]
CheckKeyword: Found keyword type assuming suffix 1 for: operator 2
CheckKeyword: Found keyword type assuming suffix 1 for: operator 2
CheckKeyword:  Unlisted keyword: [computeall] in section: [solver 6]
CheckKeyword:  Unlisted keyword: [toler] in section: [solver 8]
CheckKeyword:  Unlisted keyword: [bedrock variable] in section: [solver 8]
OpenIncludeFile: Trying to include file:  SRC/linsys/mumps.sif
CheckKeyword: Found keyword type assuming suffix 1 for: exported variable 2
CheckKeyword: Found keyword type assuming suffix 1 for: exported variable 2
CheckKeyword: Found keyword type assuming suffix 1 for: exported variable 3
CheckKeyword: Found keyword type assuming suffix 1 for: exported variable 3
CheckKeyword: Found keyword type assuming suffix 1 for: exported variable 4
CheckKeyword: Found keyword type assuming suffix 1 for: exported variable 4
CheckKeyword: Found keyword type assuming suffix 1 for: exported variable 5
CheckKeyword: Found keyword type assuming suffix 1 for: exported variable 5
CheckKeyword: Found keyword type assuming suffix 1 for: exported variable 6
CheckKeyword: Found keyword type assuming suffix 1 for: exported variable 6
CheckKeyword:  Unlisted keyword: [nonlinear system relaxation before] in section: [solver 11]
CheckKeyword: Found keyword type assuming suffix 1 for: exported variable 2
CheckKeyword: Found keyword type assuming suffix 1 for: exported variable 2
CheckKeyword:  Unlisted keyword: [relaxation factor] in section: [solver 12]
CheckKeyword: Found keyword type assuming suffix 1 for: exported variable 2
CheckKeyword: Found keyword type assuming suffix 1 for: exported variable 2
CheckKeyword:  Unlisted keyword: [relaxation factor] in section: [solver 13]
CheckKeyword:  Unlisted keyword: [flow solver name] in section: [solver 14]
CheckKeyword:  Unlisted keyword: [stress variable name] in section: [solver 14]
CheckKeyword:  Unlisted keyword: [toler] in section: [solver 15]
CheckKeyword: Found keyword type assuming suffix 1 for: exported variable 2
CheckKeyword: Found keyword type assuming suffix 1 for: exported variable 2
CheckKeyword: Found keyword type assuming suffix 1 for: exported variable 3
CheckKeyword: Found keyword type assuming suffix 1 for: exported variable 3
CheckKeyword: Found keyword type assuming suffix 1 for: exported variable 4
CheckKeyword: Found keyword type assuming suffix 1 for: exported variable 4
CheckKeyword:  Unlisted keyword: [water sheet thickness passive] in section: [solver 16]
CheckKeyword:  Unlisted keyword: [partial vertical meshupdate 1] in section: [boundary condition 5]
CheckKeyword:  Unlisted keyword: [partial vertical meshupdate 2] in section: [boundary condition 5]
CheckKeyword:  Unlisted keyword: [temperature flux bc] in section: [boundary condition 5]
CheckKeyword:  Unlisted keyword: [partial vertical meshupdate 1] in section: [boundary condition 6]
CheckKeyword:  Unlisted keyword: [partial vertical meshupdate 2] in section: [boundary condition 6]
CheckKeyword:  Unlisted keyword: [partial vertical meshupdate 1] in section: [boundary condition 7]
CheckKeyword:  Unlisted keyword: [partial vertical meshupdate 2] in section: [boundary condition 7]
CheckKeyword:  Unlisted keyword: [partial vertical meshupdate 1] in section: [boundary condition 8]
CheckKeyword:  Unlisted keyword: [partial vertical meshupdate 2] in section: [boundary condition 8]
CheckKeyword:  Unlisted keyword: [partial vertical meshupdate 1] in section: [boundary condition 9]
CheckKeyword:  Unlisted keyword: [partial vertical meshupdate 2] in section: [boundary condition 9]
CheckKeyword:  Unlisted keyword: [temperature flux bc] in section: [boundary condition 9]
CheckKeyword:  Unlisted keyword: [partial vertical meshupdate 1] in section: [boundary condition 10]
CheckKeyword:  Unlisted keyword: [partial vertical meshupdate 2] in section: [boundary condition 10]
CheckKeyword:  Unlisted keyword: [partial vertical meshupdate 1] in section: [boundary condition 11]
CheckKeyword:  Unlisted keyword: [partial vertical meshupdate 2] in section: [boundary condition 11]
CheckKeyword:  Unlisted keyword: [partial vertical meshupdate 1] in section: [boundary condition 12]
CheckKeyword:  Unlisted keyword: [partial vertical meshupdate 2] in section: [boundary condition 12]
CheckKeyword:  Unlisted keyword: [partial vertical meshupdate 1] in section: [boundary condition 13]
CheckKeyword:  Unlisted keyword: [partial vertical meshupdate 2] in section: [boundary condition 13]
CheckKeyword:  Unlisted keyword: [partial vertical meshupdate 3] in section: [boundary condition 13]
CheckKeyword:  Unlisted keyword: [temperature flux bc] in section: [boundary condition 13]
Loading user function library: [SRC/Buoyancy.so]...[SeaPressure]
CheckKeyword:  Unlisted keyword: [compute sea pressure] in section: [boundary condition 14]
CheckKeyword:  Unlisted keyword: [partial vertical meshupdate 1] in section: [boundary condition 14]
CheckKeyword:  Unlisted keyword: [partial vertical meshupdate 2] in section: [boundary condition 14]
CheckKeyword:  Unlisted keyword: [computenormal] in section: [boundary condition 14]
CheckKeyword:  Unlisted keyword: [partial vertical meshupdate 1] in section: [boundary condition 15]
CheckKeyword:  Unlisted keyword: [partial vertical meshupdate 2] in section: [boundary condition 15]
CheckKeyword:  Unlisted keyword: [partial vertical meshupdate 3] in section: [boundary condition 15]
CheckKeyword:  Unlisted keyword: [partial vertical meshupdate 1] in section: [boundary condition 16]
CheckKeyword:  Unlisted keyword: [partial vertical meshupdate 2] in section: [boundary condition 16]
CheckKeyword:  Unlisted keyword: [partial vertical meshupdate 3] in section: [boundary condition 16]
CheckKeyword:  Unlisted keyword: [partial vertical meshupdate 1] in section: [boundary condition 17]
CheckKeyword:  Unlisted keyword: [partial vertical meshupdate 2] in section: [boundary condition 17]
CheckKeyword:  Unlisted keyword: [partial vertical meshupdate 3] in section: [boundary condition 17]
CheckKeyword:  Unlisted keyword: [temperature flux bc] in section: [boundary condition 17]
CheckKeyword:  Unlisted keyword: [partial vertical meshupdate 1] in section: [boundary condition 18]
CheckKeyword:  Unlisted keyword: [partial vertical meshupdate 2] in section: [boundary condition 18]
CheckKeyword:  Unlisted keyword: [partial vertical meshupdate 3] in section: [boundary condition 18]
CheckKeyword:  Unlisted keyword: [zb condition] in section: [boundary condition 19]
CheckKeyword:  Unlisted keyword: [flow solution name] in section: [boundary condition 19]
Loading user function library: [SRC/Buoyancy.so]...[SeaSpring]
CheckKeyword:  Unlisted keyword: [compute sea spring] in section: [boundary condition 19]
Loading user function library: [ElmerIceUSF]...[SlidCoef_Contact]
Loading user function library: [ElmerIceUSF]...[SlidCoef_Contact]
Loading user function library: [SRC/Buoyancy.so]...[SeaPressure]
CheckKeyword:  Unlisted keyword: [compute sea pressure] in section: [boundary condition 19]
CheckKeyword:  Unlisted keyword: [computenormal condition] in section: [boundary condition 19]
CheckKeyword:  Unlisted keyword: [grounding line moves] in section: [boundary condition 19]
CheckKeyword:  Unlisted keyword: [grounding line definition] in section: [boundary condition 19]
CheckKeyword:  Unlisted keyword: [test contact tolerance] in section: [boundary condition 19]
CheckKeyword:  Unlisted keyword: [sliding law] in section: [boundary condition 19]
CheckKeyword:  Unlisted keyword: [weertman exponent] in section: [boundary condition 19]
CheckKeyword:  Unlisted keyword: [weertman friction coefficient] in section: [boundary condition 19]
CheckKeyword:  Unlisted keyword: [weertman linear velocity] in section: [boundary condition 19]
CheckKeyword:  Unlisted keyword: [partial vertical meshupdate 1] in section: [boundary condition 19]
CheckKeyword:  Unlisted keyword: [partial vertical meshupdate 2] in section: [boundary condition 19]
CheckKeyword:  Unlisted keyword: [partial vertical meshupdate 3] in section: [boundary condition 19]
CheckKeyword:  Unlisted keyword: [friction loads] in section: [boundary condition 19]
CheckKeyword:  Unlisted keyword: [temperature load condition] in section: [boundary condition 19]
CheckKeyword:  Unlisted keyword: [calculate temperature boundary weights] in section: [boundary condition 19]
CheckKeyword:  Unlisted keyword: [effective pressure] in section: [boundary condition 19]
CheckKeyword:  Unlisted keyword: [fssa theta] in section: [boundary condition 19]
CheckKeyword:  Unlisted keyword: [fssa flag] in section: [boundary condition 19]
CheckKeyword:  Unlisted keyword: [fssa accumulation] in section: [boundary condition 19]
CheckKeyword:  Unlisted keyword: [computenormal] in section: [boundary condition 20]
CheckKeyword:  Unlisted keyword: [partial vertical meshupdate 1] in section: [boundary condition 20]
CheckKeyword:  Unlisted keyword: [partial vertical meshupdate 2] in section: [boundary condition 20]
CheckKeyword:  Unlisted keyword: [partial vertical meshupdate 3] in section: [boundary condition 20]
CheckKeyword:  Unlisted keyword: [fssa theta] in section: [boundary condition 20]
CheckKeyword:  Unlisted keyword: [fssa flag] in section: [boundary condition 20]
CheckKeyword:  Unlisted keyword: [fssa accumulation] in section: [boundary condition 20]
LoadInputFile: Number of BCs: 20
LoadInputFile: Number of Body Forces: 5
LoadInputFile: Number of Initial Conditions: 5
LoadInputFile: Number of Materials: 3
LoadInputFile: Number of Equations: 5
LoadInputFile: Number of Solvers: 16
LoadInputFile: Number of Bodies: 5
ListTagKeywords: Setting weight for keywords!
ListTagKeywords: No parameters width suffix: normalize by area
ListTagKeywords: Setting weight for keywords!
ListTagKeywords: No parameters width suffix: normalize by volume
GroundedSolver: Computing grounded mask from geometry
GroundedSolver: Memory allocation done.
MAIN: 
MAIN: -------------------------------------
MAIN: Time: 1/150010:   1.000E-08
MAIN: -------------------------------------
MAIN: 
BiCGStabl:       36 0.6488E-12 0.6150E-12
ComputeChange: NS (ITER=1) (NRM,RELC): (  50.494379      2.0000000     ) :: partial update
ComputeNormalSolver: Computing Normal Vector for Nodes
ComputeNormalSolver: End
ColdTempMaskSolver: Memory allocation done
SolveEquations: -------------------------------------
SolveEquations:  Coupled system iteration:            1
SolveEquations: -------------------------------------
GroundedSolver: Computing grounded mask from geometry
ComputeChange: SS (ITER=1) (NRM,RELC): ( 0.99840468      2.0000000     ) :: groundedmask
SeaPressure: Variable Sea level not found. Setting to 0.0
SlidCoef_Contact: Grounding Line Defined as discontinuous
SlidCoef_Contact: GL may move by default
SlidCoef_Contact: If you want to fix the Grounding Line, put the keyword "Grounding line moves" to False
SlidCoef_Contact: Contact tested for a tolerance of 0.10000000E-02
SlidCoef_Contact: far inland nodes have the possibility to detach by default
SlidCoef_Contact: to avoid detachment (when bedrock is well below sea level),
SlidCoef_Contact: use the keyword "non detachment inland distance" to the distance you wish
SlidCoef_Contact: This works with the DistanceSolver
Sliding_Weertman:  Flow Solver Name:Flow Solution SSA: F
ComputeChange: NS (ITER=1) (NRM,RELC): (  732.37663      2.0000000     ) :: stokes-vec
ComputeChange: NS (ITER=2) (NRM,RELC): (  869.24824     0.17091595     ) :: stokes-vec
ComputeChange: NS (ITER=3) (NRM,RELC): (  917.86777     0.54411163E-01 ) :: stokes-vec
ComputeChange: NS (ITER=4) (NRM,RELC): (  934.33351     0.17779646E-01 ) :: stokes-vec
ComputeChange: NS (ITER=5) (NRM,RELC): (  939.84882     0.58855670E-02 ) :: stokes-vec
ComputeChange: NS (ITER=6) (NRM,RELC): (  941.68977     0.19568515E-02 ) :: stokes-vec
ComputeChange: NS (ITER=7) (NRM,RELC): (  942.30361     0.65164195E-03 ) :: stokes-vec
SlidCoef_Contact: FLOW SOLVER HAS SLIGHTLY CONVERGED: look for new basal conditions
ComputeChange: NS (ITER=8) (NRM,RELC): (  942.50842     0.21731979E-03 ) :: stokes-vec
ComputeChange: NS (ITER=9) (NRM,RELC): (  942.57716     0.72929697E-04 ) :: stokes-vec
ComputeChange: NS (ITER=10) (NRM,RELC): (  942.59960     0.23814241E-04 ) :: stokes-vec
ComputeChange: SS (ITER=1) (NRM,RELC): (  942.59960      2.0000000     ) :: stokes-vec
ComputeChange: NS (ITER=1) (NRM,RELC): (  3.0725753      2.0000000     ) :: deformationalheat
ComputeChange: SS (ITER=1) (NRM,RELC): (  3.0725753      2.0000000     ) :: deformationalheat
ComputeChange: NS (ITER=1) (NRM,RELC): (  275.15750     0.13247858E-04 ) :: homologous temperature equation
ComputeChange: NS (ITER=2) (NRM,RELC): (  275.15746     0.33119648E-05 ) :: homologous temperature equation
ComputeChange: SS (ITER=1) (NRM,RELC): (  275.15754      2.0000000     ) :: homologous temperature equation
SheetSolverhw: After Bulk Assembly, rank of Matrix: 2, rank of A: 2, nd: 4, n: 4, total nodes: 714
ERROR:: IterSolve: Numerical Error: System diverged over maximum tolerance.
ERROR:: IterSolve: Numerical Error: System diverged over maximum tolerance.
ERROR:: IterSolve: Numerical Error: System diverged over maximum tolerance.
ERROR:: IterSolve: Numerical Error: System diverged over maximum tolerance.
ERROR:: IterSolve: Numerical Error: System diverged over maximum tolerance.
ERROR:: IterSolve: Numerical Error: System diverged over maximum tolerance.
ERROR:: IterSolve: Numerical Error: System diverged over maximum tolerance.
ERROR:: IterSolve: Numerical Error: System diverged over maximum tolerance.
ERROR:: IterSolve: Numerical Error: System diverged over maximum tolerance.
ERROR:: IterSolve: Numerical Error: System diverged over maximum tolerance.
ERROR:: IterSolve: Numerical Error: System diverged over maximum tolerance.
ERROR:: IterSolve: Numerical Error: System diverged over maximum tolerance.
ERROR:: IterSolve: Numerical Error: System diverged over maximum tolerance.
ERROR:: IterSolve: Numerical Error: System diverged over maximum tolerance.
Note: The following floating-point exceptions are signalling: IEEE_INVALID_FLAG IEEE_DIVIDE_BY_ZERO IEEE_UNDERFLOW_FLAG IEEE_DENORMAL
STOP 1
Note: The following floating-point exceptions are signalling: IEEE_INVALID_FLAG IEEE_DIVIDE_BY_ZERO IEEE_UNDERFLOW_FLAG IEEE_DENORMAL
STOP 1
Note: The following floating-point exceptions are signalling: IEEE_INVALID_FLAG IEEE_DIVIDE_BY_ZERO IEEE_UNDERFLOW_FLAG IEEE_DENORMAL
STOP 1
Note: The following floating-point exceptions are signalling: IEEE_INVALID_FLAG IEEE_DIVIDE_BY_ZERO IEEE_UNDERFLOW_FLAG IEEE_DENORMAL
STOP 1
Note: The following floating-point exceptions are signalling: IEEE_INVALID_FLAG IEEE_DIVIDE_BY_ZERO IEEE_UNDERFLOW_FLAG IEEE_DENORMAL
STOP 1
Note: The following floating-point exceptions are signalling: IEEE_INVALID_FLAG IEEE_DIVIDE_BY_ZERO IEEE_UNDERFLOW_FLAG IEEE_DENORMAL
STOP 1
Note: The following floating-point exceptions are signalling: IEEE_INVALID_FLAG IEEE_DIVIDE_BY_ZERO IEEE_UNDERFLOW_FLAG IEEE_DENORMAL
STOP 1
Note: The following floating-point exceptions are signalling: IEEE_INVALID_FLAG IEEE_DIVIDE_BY_ZERO IEEE_UNDERFLOW_FLAG IEEE_DENORMAL
STOP 1
ERROR:: IterSolve: Numerical Error: System diverged over maximum tolerance.
ERROR:: IterSolve: Numerical Error: System diverged over maximum tolerance.
ERROR:: IterSolve: Numerical Error: System diverged over maximum tolerance.
ERROR:: IterSolve: Numerical Error: System diverged over maximum tolerance.
ERROR:: IterSolve: Numerical Error: System diverged over maximum tolerance.
ERROR:: IterSolve: Numerical Error: System diverged over maximum tolerance.
ERROR:: IterSolve: Numerical Error: System diverged over maximum tolerance.
ERROR:: IterSolve: Numerical Error: System diverged over maximum tolerance.
ERROR:: IterSolve: Numerical Error: System diverged over maximum tolerance.
ERROR:: IterSolve: Numerical Error: System diverged over maximum tolerance.
ERROR:: IterSolve: Numerical Error: System diverged over maximum tolerance.
ERROR:: IterSolve: Numerical Error: System diverged over maximum tolerance.
ERROR:: IterSolve: Numerical Error: System diverged over maximum tolerance.
ERROR:: IterSolve: Numerical Error: System diverged over maximum tolerance.
Note: The following floating-point exceptions are signalling: IEEE_INVALID_FLAG IEEE_DIVIDE_BY_ZERO IEEE_UNDERFLOW_FLAG IEEE_DENORMAL
STOP 1
Note: The following floating-point exceptions are signalling: IEEE_INVALID_FLAG IEEE_DIVIDE_BY_ZERO IEEE_UNDERFLOW_FLAG IEEE_DENORMAL
STOP 1
Note: The following floating-point exceptions are signalling: IEEE_INVALID_FLAG IEEE_DIVIDE_BY_ZERO IEEE_UNDERFLOW_FLAG IEEE_DENORMAL
STOP 1
Note: The following floating-point exceptions are signalling: IEEE_INVALID_FLAG IEEE_DIVIDE_BY_ZERO IEEE_UNDERFLOW_FLAG IEEE_DENORMAL
STOP 1
Note: The following floating-point exceptions are signalling: IEEE_INVALID_FLAG IEEE_DIVIDE_BY_ZERO IEEE_UNDERFLOW_FLAG IEEE_DENORMAL
STOP 1
Note: The following floating-point exceptions are signalling: IEEE_INVALID_FLAG IEEE_DIVIDE_BY_ZERO IEEE_UNDERFLOW_FLAG IEEE_DENORMAL
STOP 1
Note: The following floating-point exceptions are signalling: IEEE_INVALID_FLAG IEEE_DIVIDE_BY_ZERO IEEE_UNDERFLOW_FLAG IEEE_DENORMAL
STOP 1
Note: The following floating-point exceptions are signalling: IEEE_INVALID_FLAG IEEE_DIVIDE_BY_ZERO IEEE_UNDERFLOW_FLAG IEEE_DENORMAL
STOP 1
ERROR:: IterSolve: Numerical Error: System diverged over maximum tolerance.
ERROR:: IterSolve: Numerical Error: System diverged over maximum tolerance.
ERROR:: IterSolve: Numerical Error: System diverged over maximum tolerance.
ERROR:: IterSolve: Numerical Error: System diverged over maximum tolerance.
ERROR:: IterSolve: Numerical Error: System diverged over maximum tolerance.
ERROR:: IterSolve: Numerical Error: System diverged over maximum tolerance.
ERROR:: IterSolve: Numerical Error: System diverged over maximum tolerance.
ERROR:: IterSolve: Numerical Error: System diverged over maximum tolerance.
ERROR:: IterSolve: Numerical Error: System diverged over maximum tolerance.
ERROR:: IterSolve: Numerical Error: System diverged over maximum tolerance.
ERROR:: IterSolve: Numerical Error: System diverged over maximum tolerance.
ERROR:: IterSolve: Numerical Error: System diverged over maximum tolerance.
ERROR:: IterSolve: Numerical Error: System diverged over maximum tolerance.
ERROR:: IterSolve: Numerical Error: System diverged over maximum tolerance.
Note: The following floating-point exceptions are signalling: IEEE_INVALID_FLAG IEEE_DIVIDE_BY_ZERO IEEE_UNDERFLOW_FLAG IEEE_DENORMAL
STOP 1
Note: The following floating-point exceptions are signalling: IEEE_INVALID_FLAG IEEE_DIVIDE_BY_ZERO IEEE_UNDERFLOW_FLAG IEEE_DENORMAL
STOP 1
Note: The following floating-point exceptions are signalling: IEEE_INVALID_FLAG IEEE_DIVIDE_BY_ZERO IEEE_UNDERFLOW_FLAG IEEE_DENORMAL
STOP 1
Note: The following floating-point exceptions are signalling: IEEE_INVALID_FLAG IEEE_DIVIDE_BY_ZERO IEEE_UNDERFLOW_FLAG IEEE_DENORMAL
STOP 1
Note: The following floating-point exceptions are signalling: IEEE_INVALID_FLAG IEEE_DIVIDE_BY_ZERO IEEE_UNDERFLOW_FLAG IEEE_DENORMAL
STOP 1
Note: The following floating-point exceptions are signalling: IEEE_INVALID_FLAG IEEE_DIVIDE_BY_ZERO IEEE_UNDERFLOW_FLAG IEEE_DENORMAL
STOP 1
Note: The following floating-point exceptions are signalling: IEEE_INVALID_FLAG IEEE_DIVIDE_BY_ZERO IEEE_UNDERFLOW_FLAG IEEE_DENORMAL
STOP 1
Note: The following floating-point exceptions are signalling: IEEE_INVALID_FLAG IEEE_DIVIDE_BY_ZERO IEEE_UNDERFLOW_FLAG IEEE_DENORMAL
STOP 1
ERROR:: IterSolve: Numerical Error: System diverged over maximum tolerance.
ERROR:: IterSolve: Numerical Error: System diverged over maximum tolerance.
ERROR:: IterSolve: Numerical Error: System diverged over maximum tolerance.
ERROR:: IterSolve: Numerical Error: System diverged over maximum tolerance.
ERROR:: IterSolve: Numerical Error: System diverged over maximum tolerance.
ERROR:: IterSolve: Numerical Error: System diverged over maximum tolerance.
ERROR:: IterSolve: Numerical Error: System diverged over maximum tolerance.
ERROR:: IterSolve: Numerical Error: System diverged over maximum tolerance.
ERROR:: IterSolve: Numerical Error: System diverged over maximum tolerance.
ERROR:: IterSolve: Numerical Error: System diverged over maximum tolerance.
ERROR:: IterSolve: Numerical Error: System diverged over maximum tolerance.
ERROR:: IterSolve: Numerical Error: System diverged over maximum tolerance.
ERROR:: IterSolve: Numerical Error: System diverged over maximum tolerance.
ERROR:: IterSolve: Numerical Error: System diverged over maximum tolerance.
Note: The following floating-point exceptions are signalling: IEEE_INVALID_FLAG IEEE_DIVIDE_BY_ZERO IEEE_UNDERFLOW_FLAG IEEE_DENORMAL
STOP 1
Note: The following floating-point exceptions are signalling: IEEE_INVALID_FLAG IEEE_DIVIDE_BY_ZERO IEEE_UNDERFLOW_FLAG IEEE_DENORMAL
STOP 1
Note: The following floating-point exceptions are signalling: IEEE_INVALID_FLAG IEEE_DIVIDE_BY_ZERO IEEE_UNDERFLOW_FLAG IEEE_DENORMAL
STOP 1
Note: The following floating-point exceptions are signalling: IEEE_INVALID_FLAG IEEE_DIVIDE_BY_ZERO IEEE_UNDERFLOW_FLAG IEEE_DENORMAL
STOP 1
Note: The following floating-point exceptions are signalling: IEEE_INVALID_FLAG IEEE_DIVIDE_BY_ZERO IEEE_UNDERFLOW_FLAG IEEE_DENORMAL
STOP 1
Note: The following floating-point exceptions are signalling: IEEE_INVALID_FLAG IEEE_DIVIDE_BY_ZERO IEEE_UNDERFLOW_FLAG IEEE_DENORMAL
STOP 1
Note: The following floating-point exceptions are signalling: IEEE_INVALID_FLAG IEEE_DIVIDE_BY_ZERO IEEE_UNDERFLOW_FLAG IEEE_DENORMAL
STOP 1
Note: The following floating-point exceptions are signalling: IEEE_INVALID_FLAG IEEE_DIVIDE_BY_ZERO IEEE_UNDERFLOW_FLAG IEEE_DENORMAL
STOP 1
ERROR:: IterSolve: Numerical Error: System diverged over maximum tolerance.
ERROR:: IterSolve: Numerical Error: System diverged over maximum tolerance.
ERROR:: IterSolve: Numerical Error: System diverged over maximum tolerance.
ERROR:: IterSolve: Numerical Error: System diverged over maximum tolerance.
ERROR:: IterSolve: Numerical Error: System diverged over maximum tolerance.
ERROR:: IterSolve: Numerical Error: System diverged over maximum tolerance.
ERROR:: IterSolve: Numerical Error: System diverged over maximum tolerance.
ERROR:: IterSolve: Numerical Error: System diverged over maximum tolerance.
ERROR:: IterSolve: Numerical Error: System diverged over maximum tolerance.
ERROR:: IterSolve: Numerical Error: System diverged over maximum tolerance.
ERROR:: IterSolve: Numerical Error: System diverged over maximum tolerance.
ERROR:: IterSolve: Numerical Error: System diverged over maximum tolerance.
ERROR:: IterSolve: Numerical Error: System diverged over maximum tolerance.
ERROR:: IterSolve: Numerical Error: System diverged over maximum tolerance.
Note: The following floating-point exceptions are signalling: IEEE_INVALID_FLAG IEEE_DIVIDE_BY_ZERO IEEE_UNDERFLOW_FLAG IEEE_DENORMAL
STOP 1
Note: The following floating-point exceptions are signalling: IEEE_INVALID_FLAG IEEE_DIVIDE_BY_ZERO IEEE_UNDERFLOW_FLAG IEEE_DENORMAL
STOP 1
Note: The following floating-point exceptions are signalling: IEEE_INVALID_FLAG IEEE_DIVIDE_BY_ZERO IEEE_UNDERFLOW_FLAG IEEE_DENORMAL
STOP 1
Note: The following floating-point exceptions are signalling: IEEE_INVALID_FLAG IEEE_DIVIDE_BY_ZERO IEEE_UNDERFLOW_FLAG IEEE_DENORMAL
STOP 1
Note: The following floating-point exceptions are signalling: IEEE_INVALID_FLAG IEEE_DIVIDE_BY_ZERO IEEE_UNDERFLOW_FLAG IEEE_DENORMAL
STOP 1
Note: The following floating-point exceptions are signalling: IEEE_INVALID_FLAG IEEE_DIVIDE_BY_ZERO IEEE_UNDERFLOW_FLAG IEEE_DENORMAL
STOP 1
Note: The following floating-point exceptions are signalling: IEEE_INVALID_FLAG IEEE_DIVIDE_BY_ZERO IEEE_UNDERFLOW_FLAG IEEE_DENORMAL
STOP 1
Note: The following floating-point exceptions are signalling: IEEE_INVALID_FLAG IEEE_DIVIDE_BY_ZERO IEEE_UNDERFLOW_FLAG IEEE_DENORMAL
STOP 1
ERROR:: IterSolve: Numerical Error: System diverged over maximum tolerance.
ERROR:: IterSolve: Numerical Error: System diverged over maximum tolerance.
ERROR:: IterSolve: Numerical Error: System diverged over maximum tolerance.
ERROR:: IterSolve: Numerical Error: System diverged over maximum tolerance.
ERROR:: IterSolve: Numerical Error: System diverged over maximum tolerance.
ERROR:: IterSolve: Numerical Error: System diverged over maximum tolerance.
ERROR:: IterSolve: Numerical Error: System diverged over maximum tolerance.
ERROR:: IterSolve: Numerical Error: System diverged over maximum tolerance.
ERROR:: IterSolve: Numerical Error: System diverged over maximum tolerance.
ERROR:: IterSolve: Numerical Error: System diverged over maximum tolerance.
ERROR:: IterSolve: Numerical Error: System diverged over maximum tolerance.
ERROR:: IterSolve: Numerical Error: System diverged over maximum tolerance.
ERROR:: IterSolve: Numerical Error: System diverged over maximum tolerance.
ERROR:: IterSolve: Numerical Error: System diverged over maximum tolerance.
Note: The following floating-point exceptions are signalling: IEEE_INVALID_FLAG IEEE_DIVIDE_BY_ZERO IEEE_UNDERFLOW_FLAG IEEE_DENORMAL
STOP 1
Note: The following floating-point exceptions are signalling: IEEE_INVALID_FLAG IEEE_DIVIDE_BY_ZERO IEEE_UNDERFLOW_FLAG IEEE_DENORMAL
STOP 1
Note: The following floating-point exceptions are signalling: IEEE_INVALID_FLAG IEEE_DIVIDE_BY_ZERO IEEE_UNDERFLOW_FLAG IEEE_DENORMAL
STOP 1
Note: The following floating-point exceptions are signalling: IEEE_INVALID_FLAG IEEE_DIVIDE_BY_ZERO IEEE_UNDERFLOW_FLAG IEEE_DENORMAL
STOP 1
Note: The following floating-point exceptions are signalling: IEEE_INVALID_FLAG IEEE_DIVIDE_BY_ZERO IEEE_UNDERFLOW_FLAG IEEE_DENORMAL
STOP 1
Note: The following floating-point exceptions are signalling: IEEE_INVALID_FLAG IEEE_DIVIDE_BY_ZERO IEEE_UNDERFLOW_FLAG IEEE_DENORMAL
STOP 1
Note: The following floating-point exceptions are signalling: IEEE_INVALID_FLAG IEEE_DIVIDE_BY_ZERO IEEE_UNDERFLOW_FLAG IEEE_DENORMAL
STOP 1
Note: The following floating-point exceptions are signalling: IEEE_INVALID_FLAG IEEE_DIVIDE_BY_ZERO IEEE_UNDERFLOW_FLAG IEEE_DENORMAL
STOP 1
ERROR:: IterSolve: Numerical Error: System diverged over maximum tolerance.
ERROR:: IterSolve: Numerical Error: System diverged over maximum tolerance.
ERROR:: IterSolve: Numerical Error: System diverged over maximum tolerance.
ERROR:: IterSolve: Numerical Error: System diverged over maximum tolerance.
ERROR:: IterSolve: Numerical Error: System diverged over maximum tolerance.
ERROR:: IterSolve: Numerical Error: System diverged over maximum tolerance.
ERROR:: IterSolve: Numerical Error: System diverged over maximum tolerance.
ERROR:: IterSolve: Numerical Error: System diverged over maximum tolerance.
ERROR:: IterSolve: Numerical Error: System diverged over maximum tolerance.
ERROR:: IterSolve: Numerical Error: System diverged over maximum tolerance.
ERROR:: IterSolve: Numerical Error: System diverged over maximum tolerance.
ERROR:: IterSolve: Numerical Error: System diverged over maximum tolerance.
ERROR:: IterSolve: Numerical Error: System diverged over maximum tolerance.
ERROR:: IterSolve: Numerical Error: System diverged over maximum tolerance.
Note: The following floating-point exceptions are signalling: IEEE_INVALID_FLAG IEEE_DIVIDE_BY_ZERO IEEE_UNDERFLOW_FLAG IEEE_DENORMAL
STOP 1
Note: The following floating-point exceptions are signalling: IEEE_INVALID_FLAG IEEE_DIVIDE_BY_ZERO IEEE_UNDERFLOW_FLAG IEEE_DENORMAL
STOP 1
Note: The following floating-point exceptions are signalling: IEEE_INVALID_FLAG IEEE_DIVIDE_BY_ZERO IEEE_UNDERFLOW_FLAG IEEE_DENORMAL
STOP 1
Note: The following floating-point exceptions are signalling: IEEE_INVALID_FLAG IEEE_DIVIDE_BY_ZERO IEEE_UNDERFLOW_FLAG IEEE_DENORMAL
STOP 1
Note: The following floating-point exceptions are signalling: IEEE_INVALID_FLAG IEEE_DIVIDE_BY_ZERO IEEE_UNDERFLOW_FLAG IEEE_DENORMAL
STOP 1
Note: The following floating-point exceptions are signalling: IEEE_INVALID_FLAG IEEE_DIVIDE_BY_ZERO IEEE_UNDERFLOW_FLAG IEEE_DENORMAL
STOP 1
Note: The following floating-point exceptions are signalling: IEEE_INVALID_FLAG IEEE_DIVIDE_BY_ZERO IEEE_UNDERFLOW_FLAG IEEE_DENORMAL
STOP 1
Note: The following floating-point exceptions are signalling: IEEE_INVALID_FLAG IEEE_DIVIDE_BY_ZERO IEEE_UNDERFLOW_FLAG IEEE_DENORMAL
STOP 1
ERROR:: IterSolve: Numerical Error: System diverged over maximum tolerance.
ERROR:: IterSolve: Numerical Error: System diverged over maximum tolerance.
ERROR:: IterSolve: Numerical Error: System diverged over maximum tolerance.
ERROR:: IterSolve: Numerical Error: System diverged over maximum tolerance.
ERROR:: IterSolve: Numerical Error: System diverged over maximum tolerance.
ERROR:: IterSolve: Numerical Error: System diverged over maximum tolerance.
ERROR:: IterSolve: Numerical Error: System diverged over maximum tolerance.
ERROR:: IterSolve: Numerical Error: System diverged over maximum tolerance.
ERROR:: IterSolve: Numerical Error: System diverged over maximum tolerance.
ERROR:: IterSolve: Numerical Error: System diverged over maximum tolerance.
ERROR:: IterSolve: Numerical Error: System diverged over maximum tolerance.
ERROR:: IterSolve: Numerical Error: System diverged over maximum tolerance.
ERROR:: IterSolve: Numerical Error: System diverged over maximum tolerance.
ERROR:: IterSolve: Numerical Error: System diverged over maximum tolerance.
Note: The following floating-point exceptions are signalling: IEEE_INVALID_FLAG IEEE_DIVIDE_BY_ZERO IEEE_UNDERFLOW_FLAG IEEE_DENORMAL
STOP 1
Note: The following floating-point exceptions are signalling: IEEE_INVALID_FLAG IEEE_DIVIDE_BY_ZERO IEEE_UNDERFLOW_FLAG IEEE_DENORMAL
STOP 1
Note: The following floating-point exceptions are signalling: IEEE_INVALID_FLAG IEEE_DIVIDE_BY_ZERO IEEE_UNDERFLOW_FLAG IEEE_DENORMAL
STOP 1
Note: The following floating-point exceptions are signalling: IEEE_INVALID_FLAG IEEE_DIVIDE_BY_ZERO IEEE_UNDERFLOW_FLAG IEEE_DENORMAL
STOP 1
Note: The following floating-point exceptions are signalling: IEEE_INVALID_FLAG IEEE_DIVIDE_BY_ZERO IEEE_UNDERFLOW_FLAG IEEE_DENORMAL
STOP 1
Note: The following floating-point exceptions are signalling: IEEE_INVALID_FLAG IEEE_DIVIDE_BY_ZERO IEEE_UNDERFLOW_FLAG IEEE_DENORMAL
STOP 1
Note: The following floating-point exceptions are signalling: IEEE_INVALID_FLAG IEEE_DIVIDE_BY_ZERO IEEE_UNDERFLOW_FLAG IEEE_DENORMAL
STOP 1
Note: The following floating-point exceptions are signalling: IEEE_INVALID_FLAG IEEE_DIVIDE_BY_ZERO IEEE_UNDERFLOW_FLAG IEEE_DENORMAL
STOP 1
ERROR:: IterSolve: Numerical Error: System diverged over maximum tolerance.
ERROR:: IterSolve: Numerical Error: System diverged over maximum tolerance.
ERROR:: IterSolve: Numerical Error: System diverged over maximum tolerance.
ERROR:: IterSolve: Numerical Error: System diverged over maximum tolerance.
ERROR:: IterSolve: Numerical Error: System diverged over maximum tolerance.
ERROR:: IterSolve: Numerical Error: System diverged over maximum tolerance.
ERROR:: IterSolve: Numerical Error: System diverged over maximum tolerance.
ERROR:: IterSolve: Numerical Error: System diverged over maximum tolerance.
ERROR:: IterSolve: Numerical Error: System diverged over maximum tolerance.
ERROR:: IterSolve: Numerical Error: System diverged over maximum tolerance.
ERROR:: IterSolve: Numerical Error: System diverged over maximum tolerance.
ERROR:: IterSolve: Numerical Error: System diverged over maximum tolerance.
ERROR:: IterSolve: Numerical Error: System diverged over maximum tolerance.
ERROR:: IterSolve: Numerical Error: System diverged over maximum tolerance.
Note: The following floating-point exceptions are signalling: IEEE_INVALID_FLAG IEEE_DIVIDE_BY_ZERO IEEE_UNDERFLOW_FLAG IEEE_DENORMAL
STOP 1
Note: The following floating-point exceptions are signalling: IEEE_INVALID_FLAG IEEE_DIVIDE_BY_ZERO IEEE_UNDERFLOW_FLAG IEEE_DENORMAL
STOP 1
Note: The following floating-point exceptions are signalling: IEEE_INVALID_FLAG IEEE_DIVIDE_BY_ZERO IEEE_UNDERFLOW_FLAG IEEE_DENORMAL
STOP 1
Note: The following floating-point exceptions are signalling: IEEE_INVALID_FLAG IEEE_DIVIDE_BY_ZERO IEEE_UNDERFLOW_FLAG IEEE_DENORMAL
STOP 1
Note: The following floating-point exceptions are signalling: IEEE_INVALID_FLAG IEEE_DIVIDE_BY_ZERO IEEE_UNDERFLOW_FLAG IEEE_DENORMAL
STOP 1
Note: The following floating-point exceptions are signalling: IEEE_INVALID_FLAG IEEE_DIVIDE_BY_ZERO IEEE_UNDERFLOW_FLAG IEEE_DENORMAL
STOP 1
Note: The following floating-point exceptions are signalling: IEEE_INVALID_FLAG IEEE_DIVIDE_BY_ZERO IEEE_UNDERFLOW_FLAG IEEE_DENORMAL
STOP 1
Note: The following floating-point exceptions are signalling: IEEE_INVALID_FLAG IEEE_DIVIDE_BY_ZERO IEEE_UNDERFLOW_FLAG IEEE_DENORMAL
STOP 1
ERROR:: IterSolve: Numerical Error: System diverged over maximum tolerance.
ERROR:: IterSolve: Numerical Error: System diverged over maximum tolerance.
Note: The following floating-point exceptions are signalling: IEEE_INVALID_FLAG IEEE_DIVIDE_BY_ZERO IEEE_UNDERFLOW_FLAG IEEE_DENORMAL
STOP 1
Note: The following floating-point exceptions are signalling: IEEE_INVALID_FLAG IEEE_DIVIDE_BY_ZERO IEEE_UNDERFLOW_FLAG IEEE_DENORMAL
STOP 1
Note: The following floating-point exceptions are signalling: IEEE_INVALID_FLAG IEEE_DIVIDE_BY_ZERO IEEE_UNDERFLOW_FLAG IEEE_DENORMAL
STOP 1
Note: The following floating-point exceptions are signalling: IEEE_INVALID_FLAG IEEE_DIVIDE_BY_ZERO IEEE_UNDERFLOW_FLAG IEEE_DENORMAL
STOP 1
Note: The following floating-point exceptions are signalling: IEEE_INVALID_FLAG IEEE_DIVIDE_BY_ZERO IEEE_UNDERFLOW_FLAG IEEE_DENORMAL
STOP 1
Note: The following floating-point exceptions are signalling: IEEE_INVALID_FLAG IEEE_DIVIDE_BY_ZERO IEEE_UNDERFLOW_FLAG IEEE_DENORMAL
STOP 1
Note: The following floating-point exceptions are signalling: IEEE_INVALID_FLAG IEEE_DIVIDE_BY_ZERO IEEE_UNDERFLOW_FLAG IEEE_DENORMAL
STOP 1
Note: The following floating-point exceptions are signalling: IEEE_INVALID_FLAG IEEE_DIVIDE_BY_ZERO IEEE_UNDERFLOW_FLAG IEEE_DENORMAL
STOP 1
Note: The following floating-point exceptions are signalling: IEEE_INVALID_FLAG IEEE_DIVIDE_BY_ZERO IEEE_UNDERFLOW_FLAG IEEE_DENORMAL
STOP 1
Note: The following floating-point exceptions are signalling: IEEE_INVALID_FLAG IEEE_DIVIDE_BY_ZERO IEEE_UNDERFLOW_FLAG IEEE_DENORMAL
STOP 1
Note: The following floating-point exceptions are signalling: IEEE_INVALID_FLAG IEEE_DIVIDE_BY_ZERO IEEE_UNDERFLOW_FLAG IEEE_DENORMAL
STOP 1
Note: The following floating-point exceptions are signalling: IEEE_INVALID_FLAG IEEE_DIVIDE_BY_ZERO IEEE_UNDERFLOW_FLAG IEEE_DENORMAL
STOP 1
Note: The following floating-point exceptions are signalling: IEEE_INVALID_FLAG IEEE_DIVIDE_BY_ZERO IEEE_UNDERFLOW_FLAG IEEE_DENORMAL
STOP 1
Note: The following floating-point exceptions are signalling: IEEE_INVALID_FLAG IEEE_DIVIDE_BY_ZERO IEEE_UNDERFLOW_FLAG IEEE_DENORMAL
STOP 1
Note: The following floating-point exceptions are signalling: IEEE_INVALID_FLAG IEEE_DIVIDE_BY_ZERO IEEE_UNDERFLOW_FLAG IEEE_DENORMAL
STOP 1
Note: The following floating-point exceptions are signalling: IEEE_INVALID_FLAG IEEE_DIVIDE_BY_ZERO IEEE_UNDERFLOW_FLAG IEEE_DENORMAL
STOP 1
Note: The following floating-point exceptions are signalling: IEEE_INVALID_FLAG IEEE_DIVIDE_BY_ZERO IEEE_UNDERFLOW_FLAG IEEE_DENORMAL
STOP 1
Note: The following floating-point exceptions are signalling: IEEE_INVALID_FLAG IEEE_DIVIDE_BY_ZERO IEEE_UNDERFLOW_FLAG IEEE_DENORMAL
STOP 1
Note: The following floating-point exceptions are signalling: IEEE_INVALID_FLAG IEEE_DIVIDE_BY_ZERO IEEE_UNDERFLOW_FLAG IEEE_DENORMAL
STOP 1
Note: The following floating-point exceptions are signalling: IEEE_INVALID_FLAG IEEE_DIVIDE_BY_ZERO IEEE_UNDERFLOW_FLAG IEEE_DENORMAL
STOP 1
Note: The following floating-point exceptions are signalling: IEEE_INVALID_FLAG IEEE_DIVIDE_BY_ZERO IEEE_UNDERFLOW_FLAG IEEE_DENORMAL
STOP 1
Note: The following floating-point exceptions are signalling: IEEE_INVALID_FLAG IEEE_DIVIDE_BY_ZERO IEEE_UNDERFLOW_FLAG IEEE_DENORMAL
STOP 1
Note: The following floating-point exceptions are signalling: IEEE_INVALID_FLAG IEEE_DIVIDE_BY_ZERO IEEE_UNDERFLOW_FLAG IEEE_DENORMAL
STOP 1
Note: The following floating-point exceptions are signalling: IEEE_INVALID_FLAG IEEE_DIVIDE_BY_ZERO IEEE_UNDERFLOW_FLAG IEEE_DENORMAL
STOP 1
Note: The following floating-point exceptions are signalling: IEEE_INVALID_FLAG IEEE_DIVIDE_BY_ZERO IEEE_UNDERFLOW_FLAG IEEE_DENORMAL
STOP 1
Note: The following floating-point exceptions are signalling: IEEE_INVALID_FLAG IEEE_DIVIDE_BY_ZERO IEEE_UNDERFLOW_FLAG IEEE_DENORMAL
STOP 1
Note: The following floating-point exceptions are signalling: IEEE_INVALID_FLAG IEEE_DIVIDE_BY_ZERO IEEE_UNDERFLOW_FLAG IEEE_DENORMAL
STOP 1
Note: The following floating-point exceptions are signalling: IEEE_INVALID_FLAG IEEE_DIVIDE_BY_ZERO IEEE_UNDERFLOW_FLAG IEEE_DENORMAL
STOP 1
Note: The following floating-point exceptions are signalling: IEEE_INVALID_FLAG IEEE_DIVIDE_BY_ZERO IEEE_UNDERFLOW_FLAG IEEE_DENORMAL
STOP 1
Note: The following floating-point exceptions are signalling: IEEE_INVALID_FLAG IEEE_DIVIDE_BY_ZERO IEEE_UNDERFLOW_FLAG IEEE_DENORMAL
STOP 1
Note: The following floating-point exceptions are signalling: IEEE_INVALID_FLAG IEEE_DIVIDE_BY_ZERO IEEE_UNDERFLOW_FLAG IEEE_DENORMAL
STOP 1
Note: The following floating-point exceptions are signalling: IEEE_INVALID_FLAG IEEE_DIVIDE_BY_ZERO IEEE_UNDERFLOW_FLAG IEEE_DENORMAL
STOP 1
Note: The following floating-point exceptions are signalling: IEEE_INVALID_FLAG IEEE_DIVIDE_BY_ZERO IEEE_UNDERFLOW_FLAG IEEE_DENORMAL
STOP 1
Note: The following floating-point exceptions are signalling: IEEE_INVALID_FLAG IEEE_DIVIDE_BY_ZERO IEEE_UNDERFLOW_FLAG IEEE_DENORMAL
STOP 1
Note: The following floating-point exceptions are signalling: IEEE_INVALID_FLAG IEEE_DIVIDE_BY_ZERO IEEE_UNDERFLOW_FLAG IEEE_DENORMAL
STOP 1
Note: The following floating-point exceptions are signalling: IEEE_INVALID_FLAG IEEE_DIVIDE_BY_ZERO IEEE_UNDERFLOW_FLAG IEEE_DENORMAL
STOP 1
Note: The following floating-point exceptions are signalling: IEEE_INVALID_FLAG IEEE_DIVIDE_BY_ZERO IEEE_UNDERFLOW_FLAG IEEE_DENORMAL
STOP 1
Note: The following floating-point exceptions are signalling: IEEE_INVALID_FLAG IEEE_DIVIDE_BY_ZERO IEEE_UNDERFLOW_FLAG IEEE_DENORMAL
STOP 1
Note: The following floating-point exceptions are signalling: IEEE_INVALID_FLAG IEEE_DIVIDE_BY_ZERO IEEE_UNDERFLOW_FLAG IEEE_DENORMAL
STOP 1
Note: The following floating-point exceptions are signalling: IEEE_INVALID_FLAG IEEE_DIVIDE_BY_ZERO IEEE_UNDERFLOW_FLAG IEEE_DENORMAL
STOP 1
Note: The following floating-point exceptions are signalling: IEEE_INVALID_FLAG IEEE_DIVIDE_BY_ZERO IEEE_UNDERFLOW_FLAG IEEE_DENORMAL
STOP 1
Note: The following floating-point exceptions are signalling: IEEE_INVALID_FLAG IEEE_DIVIDE_BY_ZERO IEEE_UNDERFLOW_FLAG IEEE_DENORMAL
STOP 1
Note: The following floating-point exceptions are signalling: IEEE_INVALID_FLAG IEEE_DIVIDE_BY_ZERO IEEE_UNDERFLOW_FLAG IEEE_DENORMAL
STOP 1
Note: The following floating-point exceptions are signalling: IEEE_INVALID_FLAG IEEE_DIVIDE_BY_ZERO IEEE_UNDERFLOW_FLAG IEEE_DENORMAL
STOP 1
Note: The following floating-point exceptions are signalling: IEEE_INVALID_FLAG IEEE_DIVIDE_BY_ZERO IEEE_UNDERFLOW_FLAG IEEE_DENORMAL
STOP 1
Note: The following floating-point exceptions are signalling: IEEE_INVALID_FLAG IEEE_DIVIDE_BY_ZERO IEEE_UNDERFLOW_FLAG IEEE_DENORMAL
STOP 1
Note: The following floating-point exceptions are signalling: IEEE_INVALID_FLAG IEEE_DIVIDE_BY_ZERO IEEE_UNDERFLOW_FLAG IEEE_DENORMAL
STOP 1
Note: The following floating-point exceptions are signalling: IEEE_INVALID_FLAG IEEE_DIVIDE_BY_ZERO IEEE_UNDERFLOW_FLAG IEEE_DENORMAL
STOP 1
Note: The following floating-point exceptions are signalling: IEEE_INVALID_FLAG IEEE_DIVIDE_BY_ZERO IEEE_UNDERFLOW_FLAG IEEE_DENORMAL
STOP 1
Note: The following floating-point exceptions are signalling: IEEE_INVALID_FLAG IEEE_DIVIDE_BY_ZERO IEEE_UNDERFLOW_FLAG IEEE_DENORMAL
STOP 1
Note: The following floating-point exceptions are signalling: IEEE_INVALID_FLAG IEEE_DIVIDE_BY_ZERO IEEE_UNDERFLOW_FLAG IEEE_DENORMAL
STOP 1
Note: The following floating-point exceptions are signalling: IEEE_INVALID_FLAG IEEE_DIVIDE_BY_ZERO IEEE_UNDERFLOW_FLAG IEEE_DENORMAL
STOP 1
Note: The following floating-point exceptions are signalling: IEEE_INVALID_FLAG IEEE_DIVIDE_BY_ZERO IEEE_OVERFLOW_FLAG IEEE_UNDERFLOW_FLAG IEEE_DENORMAL
STOP 1
Note: The following floating-point exceptions are signalling: IEEE_INVALID_FLAG IEEE_DIVIDE_BY_ZERO IEEE_UNDERFLOW_FLAG IEEE_DENORMAL
STOP 1
Note: The following floating-point exceptions are signalling: IEEE_INVALID_FLAG IEEE_DIVIDE_BY_ZERO IEEE_UNDERFLOW_FLAG IEEE_DENORMAL
STOP 1
Note: The following floating-point exceptions are signalling: IEEE_INVALID_FLAG IEEE_DIVIDE_BY_ZERO IEEE_UNDERFLOW_FLAG IEEE_DENORMAL
STOP 1
--------------------------------------------------------------------------
Primary job  terminated normally, but 1 process returned
a non-zero exit code. Per user-direction, the job has been aborted.
--------------------------------------------------------------------------
--------------------------------------------------------------------------
mpirun detected that one or more processes exited with non-zero status, thus causing
the job to be terminated. The first process to do so was:

  Process name: [[32052,1],12]
  Exit code:    1
--------------------------------------------------------------------------
