ELMER SOLVER (v 9.0) STARTED AT: 2026/03/17 13:06:44
ELMER SOLVER (v 9.0) STARTED AT: 2026/03/17 13:06:44
ELMER SOLVER (v 9.0) STARTED AT: 2026/03/17 13:06:44
ELMER SOLVER (v 9.0) STARTED AT: 2026/03/17 13:06:44
ELMER SOLVER (v 9.0) STARTED AT: 2026/03/17 13:06:44
ELMER SOLVER (v 9.0) STARTED AT: 2026/03/17 13:06:44
ELMER SOLVER (v 9.0) STARTED AT: 2026/03/17 13:06:44
ELMER SOLVER (v 9.0) STARTED AT: 2026/03/17 13:06:44
ELMER SOLVER (v 9.0) STARTED AT: 2026/03/17 13:06:44
ELMER SOLVER (v 9.0) STARTED AT: 2026/03/17 13:06:44
ELMER SOLVER (v 9.0) STARTED AT: 2026/03/17 13:06:44
ELMER SOLVER (v 9.0) STARTED AT: 2026/03/17 13:06:44
ELMER SOLVER (v 9.0) STARTED AT: 2026/03/17 13:06:44
ELMER SOLVER (v 9.0) STARTED AT: 2026/03/17 13:06:44
ELMER SOLVER (v 9.0) STARTED AT: 2026/03/17 13:06:44
ELMER SOLVER (v 9.0) STARTED AT: 2026/03/17 13:06:44
ELMER SOLVER (v 9.0) STARTED AT: 2026/03/17 13:06:44
ELMER SOLVER (v 9.0) STARTED AT: 2026/03/17 13:06:44
ELMER SOLVER (v 9.0) STARTED AT: 2026/03/17 13:06:44
ELMER SOLVER (v 9.0) STARTED AT: 2026/03/17 13:06:44
ELMER SOLVER (v 9.0) STARTED AT: 2026/03/17 13:06:44
ELMER SOLVER (v 9.0) STARTED AT: 2026/03/17 13:06:44
ELMER SOLVER (v 9.0) STARTED AT: 2026/03/17 13:06:44
ELMER SOLVER (v 9.0) STARTED AT: 2026/03/17 13:06:44
ELMER SOLVER (v 9.0) STARTED AT: 2026/03/17 13:06:44
ELMER SOLVER (v 9.0) STARTED AT: 2026/03/17 13:06:44
ELMER SOLVER (v 9.0) STARTED AT: 2026/03/17 13:06:44
ELMER SOLVER (v 9.0) STARTED AT: 2026/03/17 13:06:44
ELMER SOLVER (v 9.0) STARTED AT: 2026/03/17 13:06:44
ELMER SOLVER (v 9.0) STARTED AT: 2026/03/17 13:06:44
ELMER SOLVER (v 9.0) STARTED AT: 2026/03/17 13:06:44
ELMER SOLVER (v 9.0) STARTED AT: 2026/03/17 13:06:44
ELMER SOLVER (v 9.0) STARTED AT: 2026/03/17 13:06:44
ELMER SOLVER (v 9.0) STARTED AT: 2026/03/17 13:06:44
ELMER SOLVER (v 9.0) STARTED AT: 2026/03/17 13:06:44
ELMER SOLVER (v 9.0) STARTED AT: 2026/03/17 13:06:44
ELMER SOLVER (v 9.0) STARTED AT: 2026/03/17 13:06:44
ELMER SOLVER (v 9.0) STARTED AT: 2026/03/17 13:06:44
ELMER SOLVER (v 9.0) STARTED AT: 2026/03/17 13:06:44
ELMER SOLVER (v 9.0) STARTED AT: 2026/03/17 13:06:44
ELMER SOLVER (v 9.0) STARTED AT: 2026/03/17 13:06:44
ELMER SOLVER (v 9.0) STARTED AT: 2026/03/17 13:06:44
ELMER SOLVER (v 9.0) STARTED AT: 2026/03/17 13:06:44
ELMER SOLVER (v 9.0) STARTED AT: 2026/03/17 13:06:44
ELMER SOLVER (v 9.0) STARTED AT: 2026/03/17 13:06:44
ELMER SOLVER (v 9.0) STARTED AT: 2026/03/17 13:06:44
ELMER SOLVER (v 9.0) STARTED AT: 2026/03/17 13:06:44
ELMER SOLVER (v 9.0) STARTED AT: 2026/03/17 13:06:44
ELMER SOLVER (v 9.0) STARTED AT: 2026/03/17 13:06:44
ELMER SOLVER (v 9.0) STARTED AT: 2026/03/17 13:06:44
ELMER SOLVER (v 9.0) STARTED AT: 2026/03/17 13:06:44
ELMER SOLVER (v 9.0) STARTED AT: 2026/03/17 13:06:44
ELMER SOLVER (v 9.0) STARTED AT: 2026/03/17 13:06:44
ELMER SOLVER (v 9.0) STARTED AT: 2026/03/17 13:06:44
ELMER SOLVER (v 9.0) STARTED AT: 2026/03/17 13:06:44
ELMER SOLVER (v 9.0) STARTED AT: 2026/03/17 13:06:44
ELMER SOLVER (v 9.0) STARTED AT: 2026/03/17 13:06:44
ELMER SOLVER (v 9.0) STARTED AT: 2026/03/17 13:06:44
ELMER SOLVER (v 9.0) STARTED AT: 2026/03/17 13:06:44
ELMER SOLVER (v 9.0) STARTED AT: 2026/03/17 13:06:44
ELMER SOLVER (v 9.0) STARTED AT: 2026/03/17 13:06:44
ELMER SOLVER (v 9.0) STARTED AT: 2026/03/17 13:06:44
ELMER SOLVER (v 9.0) STARTED AT: 2026/03/17 13:06:44
ELMER SOLVER (v 9.0) STARTED AT: 2026/03/17 13:06:44
ELMER SOLVER (v 9.0) STARTED AT: 2026/03/17 13:06:44
ELMER SOLVER (v 9.0) STARTED AT: 2026/03/17 13:06:44
ELMER SOLVER (v 9.0) STARTED AT: 2026/03/17 13:06:44
ELMER SOLVER (v 9.0) STARTED AT: 2026/03/17 13:06:44
ELMER SOLVER (v 9.0) STARTED AT: 2026/03/17 13:06:44
ELMER SOLVER (v 9.0) STARTED AT: 2026/03/17 13:06:44
ELMER SOLVER (v 9.0) STARTED AT: 2026/03/17 13:06:44
ELMER SOLVER (v 9.0) STARTED AT: 2026/03/17 13:06:44
ELMER SOLVER (v 9.0) STARTED AT: 2026/03/17 13:06:44
ELMER SOLVER (v 9.0) STARTED AT: 2026/03/17 13:06:44
ELMER SOLVER (v 9.0) STARTED AT: 2026/03/17 13:06:44
ELMER SOLVER (v 9.0) STARTED AT: 2026/03/17 13:06:44
ELMER SOLVER (v 9.0) STARTED AT: 2026/03/17 13:06:44
ELMER SOLVER (v 9.0) STARTED AT: 2026/03/17 13:06:44
ELMER SOLVER (v 9.0) STARTED AT: 2026/03/17 13:06:44
ELMER SOLVER (v 9.0) STARTED AT: 2026/03/17 13:06:44
ELMER SOLVER (v 9.0) STARTED AT: 2026/03/17 13:06:44
ELMER SOLVER (v 9.0) STARTED AT: 2026/03/17 13:06:44
ELMER SOLVER (v 9.0) STARTED AT: 2026/03/17 13:06:44
ELMER SOLVER (v 9.0) STARTED AT: 2026/03/17 13:06:44
ELMER SOLVER (v 9.0) STARTED AT: 2026/03/17 13:06:44
ELMER SOLVER (v 9.0) STARTED AT: 2026/03/17 13:06:44
ELMER SOLVER (v 9.0) STARTED AT: 2026/03/17 13:06:44
ELMER SOLVER (v 9.0) STARTED AT: 2026/03/17 13:06:44
ELMER SOLVER (v 9.0) STARTED AT: 2026/03/17 13:06:44
ELMER SOLVER (v 9.0) STARTED AT: 2026/03/17 13:06:44
ELMER SOLVER (v 9.0) STARTED AT: 2026/03/17 13:06:44
ELMER SOLVER (v 9.0) STARTED AT: 2026/03/17 13:06:44
ELMER SOLVER (v 9.0) STARTED AT: 2026/03/17 13:06:44
ELMER SOLVER (v 9.0) STARTED AT: 2026/03/17 13:06:44
ELMER SOLVER (v 9.0) STARTED AT: 2026/03/17 13:06:44
ELMER SOLVER (v 9.0) STARTED AT: 2026/03/17 13:06:44
ELMER SOLVER (v 9.0) STARTED AT: 2026/03/17 13:06:44
ELMER SOLVER (v 9.0) STARTED AT: 2026/03/17 13:06:44
ELMER SOLVER (v 9.0) STARTED AT: 2026/03/17 13:06:44
ELMER SOLVER (v 9.0) STARTED AT: 2026/03/17 13:06:44
ELMER SOLVER (v 9.0) STARTED AT: 2026/03/17 13:06:44
ELMER SOLVER (v 9.0) STARTED AT: 2026/03/17 13:06:44
ELMER SOLVER (v 9.0) STARTED AT: 2026/03/17 13:06:44
ELMER SOLVER (v 9.0) STARTED AT: 2026/03/17 13:06:44
ELMER SOLVER (v 9.0) STARTED AT: 2026/03/17 13:06:44
ELMER SOLVER (v 9.0) STARTED AT: 2026/03/17 13:06:44
ELMER SOLVER (v 9.0) STARTED AT: 2026/03/17 13:06:44
ELMER SOLVER (v 9.0) STARTED AT: 2026/03/17 13:06:44
ELMER SOLVER (v 9.0) STARTED AT: 2026/03/17 13:06:44
ELMER SOLVER (v 9.0) STARTED AT: 2026/03/17 13:06:44
ELMER SOLVER (v 9.0) STARTED AT: 2026/03/17 13:06:44
ELMER SOLVER (v 9.0) STARTED AT: 2026/03/17 13:06:44
ELMER SOLVER (v 9.0) STARTED AT: 2026/03/17 13:06:44
ELMER SOLVER (v 9.0) STARTED AT: 2026/03/17 13:06:44
ELMER SOLVER (v 9.0) STARTED AT: 2026/03/17 13:06:44
ELMER SOLVER (v 9.0) STARTED AT: 2026/03/17 13:06:44
ELMER SOLVER (v 9.0) STARTED AT: 2026/03/17 13:06:44
ELMER SOLVER (v 9.0) STARTED AT: 2026/03/17 13:06:44
ELMER SOLVER (v 9.0) STARTED AT: 2026/03/17 13:06:44
ELMER SOLVER (v 9.0) STARTED AT: 2026/03/17 13:06:44
ELMER SOLVER (v 9.0) STARTED AT: 2026/03/17 13:06:44
ELMER SOLVER (v 9.0) STARTED AT: 2026/03/17 13:06:44
ELMER SOLVER (v 9.0) STARTED AT: 2026/03/17 13:06:44
ELMER SOLVER (v 9.0) STARTED AT: 2026/03/17 13:06:44
ELMER SOLVER (v 9.0) STARTED AT: 2026/03/17 13:06:44
ELMER SOLVER (v 9.0) STARTED AT: 2026/03/17 13:06:44
ELMER SOLVER (v 9.0) STARTED AT: 2026/03/17 13:06:44
ELMER SOLVER (v 9.0) STARTED AT: 2026/03/17 13:06:44
ParCommInit: Initialize #PEs: 128
ParCommInit: Initialize #PEs: 128
ParCommInit: Initialize #PEs: 128
MAIN: 
MAIN: =============================================================
MAIN: ElmerSolver finite element software, Welcome!
MAIN: This program is free software licensed under (L)GPL
MAIN: Copyright 1st April 1995 - , CSC - IT Center for Science Ltd.
MAIN: Webpage http://www.csc.fi/elmer, Email elmeradm@csc.fi
MAIN: Version: 9.0 (Rev: afd75d4, Compiled: 2025-09-26)
MAIN:  Running in parallel using 128 tasks.
MAIN:  Running with just one thread per task.
MAIN:  HYPRE library linked in.
MAIN:  MUMPS library linked in.
MAIN:  MMG library linked in.
MAIN:  Lua interpreter linked in.
MAIN:  Zoltan library linked in.
MAIN: =============================================================
ParCommInit: Initialize #PEs: 128
MAIN: 
MAIN: 
MAIN: -------------------------------------
MAIN: Reading Model: InitialiseT1.sif
LoadInputFile: Scanning input file: InitialiseT1.sif
LoadInputFile: Scanning only size info
LoadInputFile: First time visiting
LoadInputFile: Reading base load of sif file
CheckKeyword: Found keyword type assuming suffix 1 for: output variable 2
CheckKeyword: Found keyword type assuming suffix 1 for: output variable 2
CheckKeyword: Found keyword type assuming suffix 1 for: output variable 3
CheckKeyword: Found keyword type assuming suffix 1 for: output variable 3
CheckKeyword: Found keyword type assuming suffix 1 for: output variable 4
CheckKeyword: Found keyword type assuming suffix 1 for: output variable 4
CheckKeyword: Found keyword type assuming suffix 1 for: output variable 5
CheckKeyword: Found keyword type assuming suffix 1 for: output variable 5
CheckKeyword: Found keyword type assuming suffix 1 for: output variable 6
CheckKeyword: Found keyword type assuming suffix 1 for: output variable 6
CheckKeyword: Found keyword type assuming suffix 1 for: output variable 7
CheckKeyword: Found keyword type assuming suffix 1 for: output variable 7
CheckKeyword: Found keyword type assuming suffix 1 for: output variable 8
CheckKeyword: Found keyword type assuming suffix 1 for: output variable 8
OpenIncludeFile: Trying to include file: "Initialisation/Dimensional_ICs/bed_dim.xy"
OpenIncludeFile: Trying to include file: "Initialisation/Dimensional_ICs/Tb_dim.xy"
OpenIncludeFile: Trying to include file: "Initialisation/Dimensional_ICs/bed_dim.xy"
OpenIncludeFile: Trying to include file: "Initialisation/Dimensional_ICs/Tb_dim.xy"
OpenIncludeFile: Trying to include file: "Initialisation/Dimensional_ICs/bed_dim.xy"
OpenIncludeFile: Trying to include file: "Initialisation/Dimensional_ICs/Tb_dim.xy"
OpenIncludeFile: Trying to include file: "Initialisation/Dimensional_ICs/zb_dim.xy"
OpenIncludeFile: Trying to include file: "Initialisation/Dimensional_ICs/zb_dim.xy"
OpenIncludeFile: Trying to include file: "Initialisation/Dimensional_ICs/bed_dim.xy"
OpenIncludeFile: Trying to include file: "Initialisation/Dimensional_ICs/zs_dim.xy"
CheckKeyword: Found keyword type assuming suffix 1 for: exported variable 2
CheckKeyword: Found keyword type assuming suffix 1 for: exported variable 2
CheckKeyword: Found keyword type assuming suffix 1 for: operator 2
CheckKeyword: Found keyword type assuming suffix 1 for: operator 2
OpenIncludeFile: Trying to include file:  SRC/linsys/mumps.sif
CheckKeyword: Found keyword type assuming suffix 1 for: exported variable 2
CheckKeyword: Found keyword type assuming suffix 1 for: exported variable 2
OpenIncludeFile: Trying to include file: "Initialisation/Dimensional_ICs/Tb_dim.xy"
LoadInputFile: Loading input file: InitialiseT1.sif
LoadInputFile: Reading base load of sif file
CheckKeyword:  Unlisted keyword: [gravity norm] in section: [constants]
CheckKeyword:  Unlisted keyword: [fresh water density] in section: [constants]
CheckKeyword:  Unlisted keyword: [water density] in section: [constants]
CheckKeyword:  Unlisted keyword: [ice density] in section: [constants]
CheckKeyword:  Unlisted keyword: [rock density] in section: [constants]
CheckKeyword:  Unlisted keyword: [reference temperature] in section: [constants]
CheckKeyword:  Unlisted keyword: [reference pressure] in section: [constants]
CheckKeyword:  Unlisted keyword: [sea level] in section: [constants]
CheckKeyword:  Unlisted keyword: [preserve baseline] in section: [simulation]
CheckKeyword:  Unlisted keyword: [extruded bc layers] in section: [simulation]
CheckKeyword:  Unlisted keyword: [extruded baseline layer] in section: [simulation]
CheckKeyword: Found keyword type assuming suffix 1 for: output variable 2
CheckKeyword: Found keyword type assuming suffix 1 for: output variable 2
CheckKeyword: Found keyword type assuming suffix 1 for: output variable 3
CheckKeyword: Found keyword type assuming suffix 1 for: output variable 3
CheckKeyword: Found keyword type assuming suffix 1 for: output variable 4
CheckKeyword: Found keyword type assuming suffix 1 for: output variable 4
CheckKeyword: Found keyword type assuming suffix 1 for: output variable 5
CheckKeyword: Found keyword type assuming suffix 1 for: output variable 5
CheckKeyword: Found keyword type assuming suffix 1 for: output variable 6
CheckKeyword: Found keyword type assuming suffix 1 for: output variable 6
CheckKeyword: Found keyword type assuming suffix 1 for: output variable 7
CheckKeyword: Found keyword type assuming suffix 1 for: output variable 7
CheckKeyword: Found keyword type assuming suffix 1 for: output variable 8
CheckKeyword: Found keyword type assuming suffix 1 for: output variable 8
CheckKeyword:  Unlisted keyword: [restart before initial condition] in section: [simulation]
CheckKeyword:  Unlisted keyword: [bedrock] in section: [initial condition 1]
OpenIncludeFile: Trying to include file: "Initialisation/Dimensional_ICs/bed_dim.xy"
OpenIncludeFile: Trying to include file: "Initialisation/Dimensional_ICs/Tb_dim.xy"
CheckKeyword:  Unlisted keyword: [bedrock] in section: [initial condition 2]
OpenIncludeFile: Trying to include file: "Initialisation/Dimensional_ICs/bed_dim.xy"
OpenIncludeFile: Trying to include file: "Initialisation/Dimensional_ICs/Tb_dim.xy"
CheckKeyword:  Unlisted keyword: [bedrock] in section: [initial condition 3]
OpenIncludeFile: Trying to include file: "Initialisation/Dimensional_ICs/bed_dim.xy"
OpenIncludeFile: Trying to include file: "Initialisation/Dimensional_ICs/Tb_dim.xy"
CheckKeyword:  Unlisted keyword: [zb] in section: [initial condition 4]
OpenIncludeFile: Trying to include file: "Initialisation/Dimensional_ICs/zb_dim.xy"
CheckKeyword:  Unlisted keyword: [refzb] in section: [initial condition 4]
OpenIncludeFile: Trying to include file: "Initialisation/Dimensional_ICs/zb_dim.xy"
CheckKeyword:  Unlisted keyword: [bedrock] in section: [initial condition 4]
OpenIncludeFile: Trying to include file: "Initialisation/Dimensional_ICs/bed_dim.xy"
CheckKeyword:  Unlisted keyword: [zs] in section: [initial condition 5]
OpenIncludeFile: Trying to include file: "Initialisation/Dimensional_ICs/zs_dim.xy"
CheckKeyword:  Unlisted keyword: [partial vertical meshupdate 1] in section: [body force 1]
CheckKeyword:  Unlisted keyword: [partial vertical meshupdate 2] in section: [body force 1]
CheckKeyword:  Unlisted keyword: [temperature upper limit] in section: [body force 1]
CheckKeyword:  Unlisted keyword: [partial vertical meshupdate 1] in section: [body force 2]
CheckKeyword:  Unlisted keyword: [partial vertical meshupdate 2] in section: [body force 2]
CheckKeyword:  Unlisted keyword: [temperature upper limit] in section: [body force 2]
CheckKeyword:  Unlisted keyword: [temperature upper limit] in section: [body force 3]
CheckKeyword:  Unlisted keyword: [zb accumulation] in section: [body force 4]
CheckKeyword:  Unlisted keyword: [flow solver name] in section: [body force 4]
CheckKeyword:  Unlisted keyword: [temperature upper limit] in section: [body force 4]
CheckKeyword:  Unlisted keyword: [zs accumulation] in section: [body force 5]
CheckKeyword:  Unlisted keyword: [temperature upper limit] in section: [body force 5]
CheckKeyword:  Unlisted keyword: [heat capacity scaling factor] in section: [material 3]
CheckKeyword:  Unlisted keyword: [heat conductivity scaling factor] in section: [material 3]
CheckKeyword:  Unlisted keyword: [cauchy] in section: [material 3]
CheckKeyword:  Unlisted keyword: [max zb] in section: [material 3]
CheckKeyword:  Unlisted keyword: [min zs] in section: [material 3]
CheckKeyword:  Unlisted keyword: [max zs] in section: [material 3]
CheckKeyword:  Unlisted keyword: [temperature upper limit] in section: [material 3]
CheckKeyword:  Unlisted keyword: [minimum height] in section: [solver 1]
CheckKeyword:  Unlisted keyword: [mesh update variable] in section: [solver 1]
CheckKeyword: Found keyword type assuming suffix 1 for: exported variable 2
CheckKeyword: Found keyword type assuming suffix 1 for: exported variable 2
CheckKeyword:  Unlisted keyword: [adjust surface] in section: [solver 1]
CheckKeyword: Found keyword type assuming suffix 1 for: operator 2
CheckKeyword: Found keyword type assuming suffix 1 for: operator 2
CheckKeyword:  Unlisted keyword: [relaxation factor] in section: [solver 4]
CheckKeyword:  Unlisted keyword: [relaxation factor] in section: [solver 5]
CheckKeyword:  Unlisted keyword: [computeall] in section: [solver 6]
CheckKeyword:  Unlisted keyword: [toler] in section: [solver 7]
CheckKeyword:  Unlisted keyword: [bedrock variable] in section: [solver 7]
OpenIncludeFile: Trying to include file:  SRC/linsys/mumps.sif
CheckKeyword: Found keyword type assuming suffix 1 for: exported variable 2
CheckKeyword: Found keyword type assuming suffix 1 for: exported variable 2
CheckKeyword:  Unlisted keyword: [nonlinear system relaxation before] in section: [solver 10]
CheckKeyword:  Unlisted keyword: [partial vertical meshupdate 1] in section: [boundary condition 5]
CheckKeyword:  Unlisted keyword: [partial vertical meshupdate 2] in section: [boundary condition 5]
CheckKeyword:  Unlisted keyword: [temperature flux bc] in section: [boundary condition 5]
CheckKeyword:  Unlisted keyword: [partial vertical meshupdate 1] in section: [boundary condition 6]
CheckKeyword:  Unlisted keyword: [partial vertical meshupdate 2] in section: [boundary condition 6]
CheckKeyword:  Unlisted keyword: [partial vertical meshupdate 1] in section: [boundary condition 7]
CheckKeyword:  Unlisted keyword: [partial vertical meshupdate 2] in section: [boundary condition 7]
CheckKeyword:  Unlisted keyword: [partial vertical meshupdate 1] in section: [boundary condition 8]
CheckKeyword:  Unlisted keyword: [partial vertical meshupdate 2] in section: [boundary condition 8]
CheckKeyword:  Unlisted keyword: [partial vertical meshupdate 1] in section: [boundary condition 9]
CheckKeyword:  Unlisted keyword: [partial vertical meshupdate 2] in section: [boundary condition 9]
CheckKeyword:  Unlisted keyword: [temperature flux bc] in section: [boundary condition 9]
CheckKeyword:  Unlisted keyword: [partial vertical meshupdate 1] in section: [boundary condition 10]
CheckKeyword:  Unlisted keyword: [partial vertical meshupdate 2] in section: [boundary condition 10]
CheckKeyword:  Unlisted keyword: [partial vertical meshupdate 1] in section: [boundary condition 11]
CheckKeyword:  Unlisted keyword: [partial vertical meshupdate 2] in section: [boundary condition 11]
CheckKeyword:  Unlisted keyword: [partial vertical meshupdate 1] in section: [boundary condition 12]
CheckKeyword:  Unlisted keyword: [partial vertical meshupdate 2] in section: [boundary condition 12]
CheckKeyword:  Unlisted keyword: [partial vertical meshupdate 1] in section: [boundary condition 13]
CheckKeyword:  Unlisted keyword: [partial vertical meshupdate 2] in section: [boundary condition 13]
CheckKeyword:  Unlisted keyword: [partial vertical meshupdate 3] in section: [boundary condition 13]
CheckKeyword:  Unlisted keyword: [temperature flux bc] in section: [boundary condition 13]
Loading user function library: [SRC/Buoyancy.so]...[SeaPressure]
CheckKeyword:  Unlisted keyword: [compute sea pressure] in section: [boundary condition 14]
CheckKeyword:  Unlisted keyword: [partial vertical meshupdate 1] in section: [boundary condition 14]
CheckKeyword:  Unlisted keyword: [partial vertical meshupdate 2] in section: [boundary condition 14]
CheckKeyword:  Unlisted keyword: [computenormal] in section: [boundary condition 14]
CheckKeyword:  Unlisted keyword: [partial vertical meshupdate 1] in section: [boundary condition 15]
CheckKeyword:  Unlisted keyword: [partial vertical meshupdate 2] in section: [boundary condition 15]
CheckKeyword:  Unlisted keyword: [partial vertical meshupdate 3] in section: [boundary condition 15]
CheckKeyword:  Unlisted keyword: [partial vertical meshupdate 1] in section: [boundary condition 16]
CheckKeyword:  Unlisted keyword: [partial vertical meshupdate 2] in section: [boundary condition 16]
CheckKeyword:  Unlisted keyword: [partial vertical meshupdate 3] in section: [boundary condition 16]
CheckKeyword:  Unlisted keyword: [partial vertical meshupdate 1] in section: [boundary condition 17]
CheckKeyword:  Unlisted keyword: [partial vertical meshupdate 2] in section: [boundary condition 17]
CheckKeyword:  Unlisted keyword: [partial vertical meshupdate 3] in section: [boundary condition 17]
CheckKeyword:  Unlisted keyword: [temperature flux bc] in section: [boundary condition 17]
CheckKeyword:  Unlisted keyword: [partial vertical meshupdate 1] in section: [boundary condition 18]
CheckKeyword:  Unlisted keyword: [partial vertical meshupdate 2] in section: [boundary condition 18]
CheckKeyword:  Unlisted keyword: [partial vertical meshupdate 3] in section: [boundary condition 18]
OpenIncludeFile: Trying to include file: "Initialisation/Dimensional_ICs/Tb_dim.xy"
CheckKeyword:  Unlisted keyword: [flow solution name] in section: [boundary condition 19]
Loading user function library: [SRC/Buoyancy.so]...[SeaSpring]
CheckKeyword:  Unlisted keyword: [compute sea spring] in section: [boundary condition 19]
Loading user function library: [ElmerIceUSF]...[SlidCoef_Contact]
Loading user function library: [ElmerIceUSF]...[SlidCoef_Contact]
Loading user function library: [SRC/Buoyancy.so]...[SeaPressure]
CheckKeyword:  Unlisted keyword: [compute sea pressure] in section: [boundary condition 19]
CheckKeyword:  Unlisted keyword: [computenormal condition] in section: [boundary condition 19]
CheckKeyword:  Unlisted keyword: [grounding line moves] in section: [boundary condition 19]
CheckKeyword:  Unlisted keyword: [grounding line definition] in section: [boundary condition 19]
CheckKeyword:  Unlisted keyword: [test contact tolerance] in section: [boundary condition 19]
CheckKeyword:  Unlisted keyword: [sliding law] in section: [boundary condition 19]
CheckKeyword:  Unlisted keyword: [weertman exponent] in section: [boundary condition 19]
CheckKeyword:  Unlisted keyword: [weertman friction coefficient] in section: [boundary condition 19]
CheckKeyword:  Unlisted keyword: [weertman linear velocity] in section: [boundary condition 19]
CheckKeyword:  Unlisted keyword: [partial vertical meshupdate 1] in section: [boundary condition 19]
CheckKeyword:  Unlisted keyword: [partial vertical meshupdate 2] in section: [boundary condition 19]
CheckKeyword:  Unlisted keyword: [partial vertical meshupdate 3] in section: [boundary condition 19]
CheckKeyword:  Unlisted keyword: [temperature flux bc] in section: [boundary condition 19]
CheckKeyword:  Unlisted keyword: [heat flux condition] in section: [boundary condition 19]
CheckKeyword:  Unlisted keyword: [friction loads] in section: [boundary condition 19]
CheckKeyword:  Unlisted keyword: [calculate temperature boundary weights] in section: [boundary condition 19]
CheckKeyword:  Unlisted keyword: [fssa theta] in section: [boundary condition 19]
CheckKeyword:  Unlisted keyword: [fssa flag] in section: [boundary condition 19]
CheckKeyword:  Unlisted keyword: [fssa accumulation] in section: [boundary condition 19]
CheckKeyword:  Unlisted keyword: [computenormal] in section: [boundary condition 20]
CheckKeyword:  Unlisted keyword: [partial vertical meshupdate 1] in section: [boundary condition 20]
CheckKeyword:  Unlisted keyword: [partial vertical meshupdate 2] in section: [boundary condition 20]
CheckKeyword:  Unlisted keyword: [partial vertical meshupdate 3] in section: [boundary condition 20]
CheckKeyword:  Unlisted keyword: [fssa theta] in section: [boundary condition 20]
CheckKeyword:  Unlisted keyword: [fssa flag] in section: [boundary condition 20]
CheckKeyword:  Unlisted keyword: [fssa accumulation] in section: [boundary condition 20]
LoadInputFile: Number of BCs: 20
LoadInputFile: Number of Body Forces: 5
LoadInputFile: Number of Initial Conditions: 5
LoadInputFile: Number of Materials: 3
LoadInputFile: Number of Equations: 5
LoadInputFile: Number of Solvers: 11
LoadInputFile: Number of Bodies: 5
ListTagKeywords: Setting weight for keywords!
ListTagKeywords: No parameters width suffix: normalize by area
ListTagKeywords: Setting weight for keywords!
ListTagKeywords: No parameters width suffix: normalize by volume
WARNING:: LoadRestartFile: Fields are of different size (352 vs. 816): temperature
WARNING:: LoadRestartFile: Fields are of different size (308 vs. 714): temperature
WARNING:: LoadRestartFile: Fields are of different size (308 vs. 714): temperature
WARNING:: LoadRestartFile: Fields are of different size (308 vs. 714): temperature
WARNING:: LoadRestartFile: Fields are of different size (308 vs. 714): temperature
WARNING:: LoadRestartFile: Fields are of different size (352 vs. 816): temperature
WARNING:: LoadRestartFile: Fields are of different size (308 vs. 714): temperature
WARNING:: LoadRestartFile: Fields are of different size (308 vs. 714): temperature
WARNING:: LoadRestartFile: Fields are of different size (352 vs. 816): temperature
WARNING:: LoadRestartFile: Fields are of different size (308 vs. 714): temperature
WARNING:: LoadRestartFile: Fields are of different size (352 vs. 816): temperature
WARNING:: LoadRestartFile: Fields are of different size (308 vs. 714): temperature
WARNING:: LoadRestartFile: Fields are of different size (308 vs. 714): temperature
WARNING:: LoadRestartFile: Fields are of different size (352 vs. 816): temperature
WARNING:: LoadRestartFile: Fields are of different size (308 vs. 714): temperature
WARNING:: LoadRestartFile: Fields are of different size (308 vs. 714): temperature
WARNING:: LoadRestartFile: Fields are of different size (308 vs. 714): temperature
WARNING:: LoadRestartFile: Fields are of different size (352 vs. 816): temperature
WARNING:: LoadRestartFile: Fields are of different size (308 vs. 714): temperature
WARNING:: LoadRestartFile: Fields are of different size (352 vs. 816): temperature
WARNING:: LoadRestartFile: Fields are of different size (308 vs. 714): temperature
WARNING:: LoadRestartFile: Fields are of different size (308 vs. 714): temperature
WARNING:: LoadRestartFile: Fields are of different size (308 vs. 714): temperature
WARNING:: LoadRestartFile: Fields are of different size (352 vs. 816): temperature
WARNING:: LoadRestartFile: Fields are of different size (352 vs. 816): temperature
WARNING:: LoadRestartFile: Fields are of different size (308 vs. 714): temperature
WARNING:: LoadRestartFile: Fields are of different size (308 vs. 714): temperature
WARNING:: LoadRestartFile: Fields are of different size (308 vs. 714): temperature
WARNING:: LoadRestartFile: Fields are of different size (352 vs. 816): temperature
WARNING:: LoadRestartFile: Fields are of different size (352 vs. 816): temperature
WARNING:: LoadRestartFile: Fields are of different size (308 vs. 714): temperature
WARNING:: LoadRestartFile: Fields are of different size (352 vs. 816): temperature
WARNING:: LoadRestartFile: Fields are of different size (308 vs. 714): temperature
WARNING:: LoadRestartFile: Fields are of different size (308 vs. 714): temperature
WARNING:: LoadRestartFile: Fields are of different size (352 vs. 816): temperature
WARNING:: LoadRestartFile: Fields are of different size (308 vs. 714): temperature
WARNING:: LoadRestartFile: Fields are of different size (308 vs. 714): temperature
WARNING:: LoadRestartFile: Fields are of different size (352 vs. 816): temperature
WARNING:: LoadRestartFile: Fields are of different size (308 vs. 714): temperature
WARNING:: LoadRestartFile: Fields are of different size (308 vs. 714): temperature
WARNING:: LoadRestartFile: Fields are of different size (352 vs. 816): temperature
WARNING:: LoadRestartFile: Fields are of different size (308 vs. 714): temperature
WARNING:: LoadRestartFile: Fields are of different size (308 vs. 714): temperature
WARNING:: LoadRestartFile: Fields are of different size (352 vs. 816): temperature
WARNING:: LoadRestartFile: Fields are of different size (308 vs. 714): temperature
WARNING:: LoadRestartFile: Fields are of different size (308 vs. 714): temperature
WARNING:: LoadRestartFile: Fields are of different size (352 vs. 816): temperature
WARNING:: LoadRestartFile: Fields are of different size (308 vs. 714): temperature
WARNING:: LoadRestartFile: Fields are of different size (352 vs. 816): temperature
WARNING:: LoadRestartFile: Fields are of different size (308 vs. 714): temperature
WARNING:: LoadRestartFile: Fields are of different size (308 vs. 714): temperature
WARNING:: LoadRestartFile: Fields are of different size (308 vs. 714): temperature
WARNING:: LoadRestartFile: Fields are of different size (308 vs. 714): temperature
WARNING:: LoadRestartFile: Fields are of different size (352 vs. 816): temperature
WARNING:: LoadRestartFile: Fields are of different size (308 vs. 714): temperature
WARNING:: LoadRestartFile: Fields are of different size (308 vs. 714): temperature
WARNING:: LoadRestartFile: Fields are of different size (352 vs. 816): temperature
WARNING:: LoadRestartFile: Fields are of different size (308 vs. 714): temperature
WARNING:: LoadRestartFile: Fields are of different size (308 vs. 714): temperature
WARNING:: LoadRestartFile: Fields are of different size (352 vs. 816): temperature
WARNING:: LoadRestartFile: Fields are of different size (308 vs. 714): temperature
WARNING:: LoadRestartFile: Fields are of different size (308 vs. 714): temperature
WARNING:: LoadRestartFile: Fields are of different size (352 vs. 816): temperature
WARNING:: LoadRestartFile: Fields are of different size (308 vs. 714): temperature
WARNING:: LoadRestartFile: Fields are of different size (352 vs. 816): temperature
WARNING:: LoadRestartFile: Fields are of different size (308 vs. 714): temperature
WARNING:: LoadRestartFile: Fields are of different size (308 vs. 714): temperature
WARNING:: LoadRestartFile: Fields are of different size (352 vs. 816): temperature
WARNING:: LoadRestartFile: Fields are of different size (308 vs. 714): temperature
WARNING:: LoadRestartFile: Fields are of different size (308 vs. 714): temperature
WARNING:: LoadRestartFile: Fields are of different size (352 vs. 816): temperature
WARNING:: LoadRestartFile: Fields are of different size (308 vs. 714): temperature
WARNING:: LoadRestartFile: Fields are of different size (308 vs. 714): temperature
WARNING:: LoadRestartFile: Fields are of different size (352 vs. 816): temperature
WARNING:: LoadRestartFile: Fields are of different size (308 vs. 714): temperature
WARNING:: LoadRestartFile: Fields are of different size (308 vs. 714): temperature
WARNING:: LoadRestartFile: Fields are of different size (352 vs. 816): temperature
WARNING:: LoadRestartFile: Fields are of different size (308 vs. 714): temperature
WARNING:: LoadRestartFile: Fields are of different size (308 vs. 714): temperature
WARNING:: LoadRestartFile: Fields are of different size (352 vs. 816): temperature
WARNING:: LoadRestartFile: Fields are of different size (308 vs. 714): temperature
WARNING:: LoadRestartFile: Fields are of different size (308 vs. 714): temperature
WARNING:: LoadRestartFile: Fields are of different size (352 vs. 816): temperature
WARNING:: LoadRestartFile: Fields are of different size (308 vs. 714): temperature
WARNING:: LoadRestartFile: Fields are of different size (308 vs. 714): temperature
WARNING:: LoadRestartFile: Fields are of different size (308 vs. 714): temperature
WARNING:: LoadRestartFile: Fields are of different size (352 vs. 816): temperature
WARNING:: LoadRestartFile: Fields are of different size (308 vs. 714): temperature
WARNING:: LoadRestartFile: Fields are of different size (308 vs. 714): temperature
WARNING:: LoadRestartFile: Fields are of different size (352 vs. 816): temperature
WARNING:: LoadRestartFile: Fields are of different size (308 vs. 714): temperature
WARNING:: LoadRestartFile: Fields are of different size (308 vs. 714): temperature
WARNING:: LoadRestartFile: Fields are of different size (352 vs. 816): temperature
WARNING:: LoadRestartFile: Fields are of different size (308 vs. 714): temperature
WARNING:: LoadRestartFile: Fields are of different size (308 vs. 714): temperature
WARNING:: LoadRestartFile: Fields are of different size (352 vs. 816): temperature
WARNING:: LoadRestartFile: Fields are of different size (308 vs. 714): temperature
WARNING:: LoadRestartFile: Fields are of different size (308 vs. 714): temperature
WARNING:: LoadRestartFile: Fields are of different size (352 vs. 816): temperature
WARNING:: LoadRestartFile: Fields are of different size (308 vs. 714): temperature
WARNING:: LoadRestartFile: Fields are of different size (352 vs. 816): temperature
WARNING:: LoadRestartFile: Fields are of different size (308 vs. 714): temperature
WARNING:: LoadRestartFile: Fields are of different size (308 vs. 714): temperature
WARNING:: LoadRestartFile: Fields are of different size (352 vs. 816): temperature
WARNING:: LoadRestartFile: Fields are of different size (308 vs. 714): temperature
WARNING:: LoadRestartFile: Fields are of different size (308 vs. 714): temperature
WARNING:: LoadRestartFile: Fields are of different size (352 vs. 816): temperature
WARNING:: LoadRestartFile: Fields are of different size (308 vs. 714): temperature
WARNING:: LoadRestartFile: Fields are of different size (308 vs. 714): temperature
WARNING:: LoadRestartFile: Fields are of different size (352 vs. 816): temperature
WARNING:: LoadRestartFile: Fields are of different size (308 vs. 714): temperature
WARNING:: LoadRestartFile: Fields are of different size (352 vs. 816): temperature
WARNING:: LoadRestartFile: Fields are of different size (308 vs. 714): temperature
WARNING:: LoadRestartFile: Fields are of different size (308 vs. 714): temperature
WARNING:: LoadRestartFile: Fields are of different size (352 vs. 816): temperature
WARNING:: LoadRestartFile: Fields are of different size (308 vs. 714): temperature
WARNING:: LoadRestartFile: Fields are of different size (352 vs. 816): temperature
WARNING:: LoadRestartFile: Fields are of different size (308 vs. 714): temperature
WARNING:: LoadRestartFile: Fields are of different size (352 vs. 816): temperature
WARNING:: LoadRestartFile: Fields are of different size (308 vs. 714): temperature
WARNING:: LoadRestartFile: Fields are of different size (308 vs. 714): temperature
WARNING:: LoadRestartFile: Fields are of different size (352 vs. 816): temperature
WARNING:: LoadRestartFile: Fields are of different size (308 vs. 714): temperature
WARNING:: LoadRestartFile: Fields are of different size (308 vs. 714): temperature
WARNING:: LoadRestartFile: Fields are of different size (352 vs. 816): temperature
WARNING:: LoadRestartFile: Fields are of different size (308 vs. 714): temperature
WARNING:: LoadRestartFile: Fields are of different size (308 vs. 714): temperature
WARNING:: LoadRestartFile: Fields are of different size (352 vs. 816): temperature
MAIN: 
MAIN: -------------------------------------
MAIN: Time: 1/115:   1.003E+03
MAIN: -------------------------------------
MAIN: 
BiCGStabl:       36 0.6633E-12 0.6287E-12
ComputeChange: NS (ITER=1) (NRM,RELC): (  50.494222      2.0000000     ) :: partial update
ComputeNormalSolver: Computing Normal Vector for Nodes
ComputeNormalSolver: End
GroundedSolver: Computing grounded mask from geometry
GroundedSolver: Memory allocation done.
SolveEquations: -------------------------------------
SolveEquations:  Coupled system iteration:            1
SolveEquations: -------------------------------------
ComputeChange: NS (ITER=1) (NRM,RELC): (  272.50648     0.92129285E-02 ) :: homologous temperature equation
ComputeChange: NS (ITER=2) (NRM,RELC): (  272.24854     0.23043227E-02 ) :: homologous temperature equation
ComputeChange: NS (ITER=3) (NRM,RELC): (  272.12002     0.11529793E-02 ) :: homologous temperature equation
ComputeChange: NS (ITER=4) (NRM,RELC): (  272.05587     0.57669376E-03 ) :: homologous temperature equation
ComputeChange: NS (ITER=5) (NRM,RELC): (  272.02383     0.28839786E-03 ) :: homologous temperature equation
ComputeChange: NS (ITER=6) (NRM,RELC): (  272.00781     0.14421167E-03 ) :: homologous temperature equation
ComputeChange: NS (ITER=7) (NRM,RELC): (  271.99981     0.72109018E-04 ) :: homologous temperature equation
ComputeChange: NS (ITER=8) (NRM,RELC): (  271.99581     0.36055305E-04 ) :: homologous temperature equation
ComputeChange: NS (ITER=9) (NRM,RELC): (  271.99380     0.18027851E-04 ) :: homologous temperature equation
ComputeChange: NS (ITER=10) (NRM,RELC): (  271.99280     0.90139754E-05 ) :: homologous temperature equation
ComputeChange: SS (ITER=1) (NRM,RELC): (  272.67945      2.0000000     ) :: homologous temperature equation
SolveEquations: -------------------------------------
SolveEquations:  Coupled system iteration:            2
SolveEquations: -------------------------------------
ComputeChange: NS (ITER=1) (NRM,RELC): (  272.33455     0.30724698E-02 ) :: homologous temperature equation
ComputeChange: NS (ITER=2) (NRM,RELC): (  272.16291     0.15376923E-02 ) :: homologous temperature equation
ComputeChange: NS (ITER=3) (NRM,RELC): (  272.07729     0.76920956E-03 ) :: homologous temperature equation
ComputeChange: NS (ITER=4) (NRM,RELC): (  272.03453     0.38469553E-03 ) :: homologous temperature equation
ComputeChange: NS (ITER=5) (NRM,RELC): (  272.01316     0.19237044E-03 ) :: homologous temperature equation
ComputeChange: NS (ITER=6) (NRM,RELC): (  272.00248     0.96190884E-04 ) :: homologous temperature equation
ComputeChange: NS (ITER=7) (NRM,RELC): (  271.99714     0.48096859E-04 ) :: homologous temperature equation
ComputeChange: NS (ITER=8) (NRM,RELC): (  271.99447     0.24048783E-04 ) :: homologous temperature equation
ComputeChange: NS (ITER=9) (NRM,RELC): (  271.99314     0.12024480E-04 ) :: homologous temperature equation
ComputeChange: NS (ITER=10) (NRM,RELC): (  271.99247     0.60122622E-05 ) :: homologous temperature equation
ComputeChange: SS (ITER=2) (NRM,RELC): (  272.44951     0.84362032E-03 ) :: homologous temperature equation
SolveEquations: -------------------------------------
SolveEquations:  Coupled system iteration:            3
SolveEquations: -------------------------------------
ComputeChange: NS (ITER=1) (NRM,RELC): (  272.22018     0.20506089E-02 ) :: homologous temperature equation
ComputeChange: NS (ITER=2) (NRM,RELC): (  272.10587     0.10259517E-02 ) :: homologous temperature equation
ComputeChange: NS (ITER=3) (NRM,RELC): (  272.04881     0.51313740E-03 ) :: homologous temperature equation
ComputeChange: NS (ITER=4) (NRM,RELC): (  272.02030     0.25660906E-03 ) :: homologous temperature equation
ComputeChange: NS (ITER=5) (NRM,RELC): (  272.00605     0.12831461E-03 ) :: homologous temperature equation
ComputeChange: NS (ITER=6) (NRM,RELC): (  271.99893     0.64159827E-04 ) :: homologous temperature equation
ComputeChange: NS (ITER=7) (NRM,RELC): (  271.99536     0.32080543E-04 ) :: homologous temperature equation
ComputeChange: NS (ITER=8) (NRM,RELC): (  271.99358     0.16040429E-04 ) :: homologous temperature equation
ComputeChange: NS (ITER=9) (NRM,RELC): (  271.99269     0.80202540E-05 ) :: homologous temperature equation
ComputeChange: SS (ITER=3) (NRM,RELC): (  272.29681     0.56060108E-03 ) :: homologous temperature equation
SolveEquations: -------------------------------------
SolveEquations:  Coupled system iteration:            4
SolveEquations: -------------------------------------
ComputeChange: NS (ITER=1) (NRM,RELC): (  272.14410     0.13689826E-02 ) :: homologous temperature equation
ComputeChange: NS (ITER=2) (NRM,RELC): (  272.06790     0.68477923E-03 ) :: homologous temperature equation
ComputeChange: NS (ITER=3) (NRM,RELC): (  272.02984     0.34246151E-03 ) :: homologous temperature equation
ComputeChange: NS (ITER=4) (NRM,RELC): (  272.01082     0.17124872E-03 ) :: homologous temperature equation
ComputeChange: NS (ITER=5) (NRM,RELC): (  272.00131     0.85628851E-04 ) :: homologous temperature equation
ComputeChange: NS (ITER=6) (NRM,RELC): (  271.99656     0.42815548E-04 ) :: homologous temperature equation
ComputeChange: NS (ITER=7) (NRM,RELC): (  271.99418     0.21408055E-04 ) :: homologous temperature equation
ComputeChange: NS (ITER=8) (NRM,RELC): (  271.99299     0.10704097E-04 ) :: homologous temperature equation
ComputeChange: NS (ITER=9) (NRM,RELC): (  271.99240     0.53520663E-05 ) :: homologous temperature equation
ComputeChange: SS (ITER=4) (NRM,RELC): (  272.19515     0.37341231E-03 ) :: homologous temperature equation
SolveEquations: -------------------------------------
SolveEquations:  Coupled system iteration:            5
SolveEquations: -------------------------------------
ComputeChange: NS (ITER=1) (NRM,RELC): (  272.09338     0.91380208E-03 ) :: homologous temperature equation
ComputeChange: NS (ITER=2) (NRM,RELC): (  272.04257     0.45702916E-03 ) :: homologous temperature equation
ComputeChange: NS (ITER=3) (NRM,RELC): (  272.01718     0.22854659E-03 ) :: homologous temperature equation
ComputeChange: NS (ITER=4) (NRM,RELC): (  272.00449     0.11428129E-03 ) :: homologous temperature equation
ComputeChange: NS (ITER=5) (NRM,RELC): (  271.99815     0.57142646E-04 ) :: homologous temperature equation
ComputeChange: NS (ITER=6) (NRM,RELC): (  271.99497     0.28571823E-04 ) :: homologous temperature equation
ComputeChange: NS (ITER=7) (NRM,RELC): (  271.99339     0.14286036E-04 ) :: homologous temperature equation
ComputeChange: NS (ITER=8) (NRM,RELC): (  271.99260     0.71430493E-05 ) :: homologous temperature equation
ComputeChange: SS (ITER=5) (NRM,RELC): (  272.12755     0.24839120E-03 ) :: homologous temperature equation
SolveEquations: -------------------------------------
SolveEquations:  Coupled system iteration:            6
SolveEquations: -------------------------------------
ComputeChange: NS (ITER=1) (NRM,RELC): (  272.05963     0.61050492E-03 ) :: homologous temperature equation
ComputeChange: NS (ITER=2) (NRM,RELC): (  272.02571     0.30530960E-03 ) :: homologous temperature equation
ComputeChange: NS (ITER=3) (NRM,RELC): (  272.00875     0.15266907E-03 ) :: homologous temperature equation
ComputeChange: NS (ITER=4) (NRM,RELC): (  272.00028     0.76338106E-04 ) :: homologous temperature equation
ComputeChange: NS (ITER=5) (NRM,RELC): (  271.99604     0.38169945E-04 ) :: homologous temperature equation
ComputeChange: NS (ITER=6) (NRM,RELC): (  271.99392     0.19085195E-04 ) :: homologous temperature equation
ComputeChange: NS (ITER=7) (NRM,RELC): (  271.99286     0.95426535E-05 ) :: homologous temperature equation
ComputeChange: SS (ITER=6) (NRM,RELC): (  272.08262     0.16513119E-03 ) :: homologous temperature equation
SolveEquations: -------------------------------------
SolveEquations:  Coupled system iteration:            7
SolveEquations: -------------------------------------
ComputeChange: NS (ITER=1) (NRM,RELC): (  272.03719     0.40864373E-03 ) :: homologous temperature equation
ComputeChange: NS (ITER=2) (NRM,RELC): (  272.01449     0.20434745E-03 ) :: homologous temperature equation
ComputeChange: NS (ITER=3) (NRM,RELC): (  272.00315     0.10218012E-03 ) :: homologous temperature equation
ComputeChange: NS (ITER=4) (NRM,RELC): (  271.99747     0.51091657E-04 ) :: homologous temperature equation
ComputeChange: NS (ITER=5) (NRM,RELC): (  271.99464     0.25546228E-04 ) :: homologous temperature equation
ComputeChange: NS (ITER=6) (NRM,RELC): (  271.99322     0.12773214E-04 ) :: homologous temperature equation
ComputeChange: NS (ITER=7) (NRM,RELC): (  271.99251     0.63866320E-05 ) :: homologous temperature equation
ComputeChange: SS (ITER=7) (NRM,RELC): (  272.05257     0.11045684E-03 ) :: homologous temperature equation
SolveEquations: -------------------------------------
SolveEquations:  Coupled system iteration:            8
SolveEquations: -------------------------------------
ComputeChange: NS (ITER=1) (NRM,RELC): (  272.02218     0.27351598E-03 ) :: homologous temperature equation
ComputeChange: NS (ITER=2) (NRM,RELC): (  272.00699     0.13676945E-03 ) :: homologous temperature equation
ComputeChange: NS (ITER=3) (NRM,RELC): (  271.99939     0.68387588E-04 ) :: homologous temperature equation
ComputeChange: NS (ITER=4) (NRM,RELC): (  271.99560     0.34194510E-04 ) :: homologous temperature equation
ComputeChange: NS (ITER=5) (NRM,RELC): (  271.99370     0.17097434E-04 ) :: homologous temperature equation
ComputeChange: NS (ITER=6) (NRM,RELC): (  271.99275     0.85487617E-05 ) :: homologous temperature equation
ComputeChange: SS (ITER=8) (NRM,RELC): (  272.03262     0.73316563E-04 ) :: homologous temperature equation
MAIN: 
MAIN: -------------------------------------
MAIN: Time: 2/115:   2.003E+03
MAIN: Estimated time left:  1.3 hours
MAIN: -------------------------------------
MAIN: 
ComputeChange: NS (ITER=1) (NRM,RELC): (  50.494222      0.0000000     ) :: partial update
ComputeNormalSolver: Computing Normal Vector for Nodes
ComputeNormalSolver: End
GroundedSolver: Computing grounded mask from geometry
SolveEquations: -------------------------------------
SolveEquations:  Coupled system iteration:            1
SolveEquations: -------------------------------------
ComputeChange: NS (ITER=1) (NRM,RELC): (  271.96183     0.67358504E-03 ) :: homologous temperature equation
ComputeChange: NS (ITER=2) (NRM,RELC): (  271.92647     0.33685825E-03 ) :: homologous temperature equation
ComputeChange: NS (ITER=3) (NRM,RELC): (  271.90880     0.16844555E-03 ) :: homologous temperature equation
ComputeChange: NS (ITER=4) (NRM,RELC): (  271.89997     0.84226879E-04 ) :: homologous temperature equation
ComputeChange: NS (ITER=5) (NRM,RELC): (  271.89556     0.42114465E-04 ) :: homologous temperature equation
ComputeChange: NS (ITER=6) (NRM,RELC): (  271.89335     0.21057489E-04 ) :: homologous temperature equation
ComputeChange: NS (ITER=7) (NRM,RELC): (  271.89225     0.10528809E-04 ) :: homologous temperature equation
ComputeChange: NS (ITER=8) (NRM,RELC): (  271.89169     0.52644203E-05 ) :: homologous temperature equation
ComputeChange: SS (ITER=1) (NRM,RELC): (  271.98560     0.17286922E-03 ) :: homologous temperature equation
SolveEquations: -------------------------------------
SolveEquations:  Coupled system iteration:            2
SolveEquations: -------------------------------------
ComputeChange: NS (ITER=1) (NRM,RELC): (  271.93835     0.44999208E-03 ) :: homologous temperature equation
ComputeChange: NS (ITER=2) (NRM,RELC): (  271.91474     0.22502536E-03 ) :: homologous temperature equation
ComputeChange: NS (ITER=3) (NRM,RELC): (  271.90294     0.11252000E-03 ) :: homologous temperature equation
ComputeChange: NS (ITER=4) (NRM,RELC): (  271.89704     0.56261833E-04 ) :: homologous temperature equation
ComputeChange: NS (ITER=5) (NRM,RELC): (  271.89409     0.28131374E-04 ) :: homologous temperature equation
ComputeChange: NS (ITER=6) (NRM,RELC): (  271.89262     0.14065802E-04 ) :: homologous temperature equation
ComputeChange: NS (ITER=7) (NRM,RELC): (  271.89188     0.70329294E-05 ) :: homologous temperature equation
ComputeChange: SS (ITER=2) (NRM,RELC): (  271.95434     0.11494065E-03 ) :: homologous temperature equation
SolveEquations: -------------------------------------
SolveEquations:  Coupled system iteration:            3
SolveEquations: -------------------------------------
ComputeChange: NS (ITER=1) (NRM,RELC): (  271.92273     0.30119253E-03 ) :: homologous temperature equation
ComputeChange: NS (ITER=2) (NRM,RELC): (  271.90693     0.15060939E-03 ) :: homologous temperature equation
ComputeChange: NS (ITER=3) (NRM,RELC): (  271.89904     0.75307978E-04 ) :: homologous temperature equation
ComputeChange: NS (ITER=4) (NRM,RELC): (  271.89509     0.37654809E-04 ) :: homologous temperature equation
ComputeChange: NS (ITER=5) (NRM,RELC): (  271.89312     0.18827610E-04 ) :: homologous temperature equation
ComputeChange: NS (ITER=6) (NRM,RELC): (  271.89213     0.94138560E-05 ) :: homologous temperature equation
ComputeChange: SS (ITER=3) (NRM,RELC): (  271.93359     0.76286349E-04 ) :: homologous temperature equation
MAIN: 
MAIN: -------------------------------------
MAIN: Time: 3/115:   3.003E+03
MAIN: Estimated time left: 24.7 minutes
MAIN: -------------------------------------
MAIN: 
ComputeChange: NS (ITER=1) (NRM,RELC): (  50.494222      0.0000000     ) :: partial update
ComputeNormalSolver: Computing Normal Vector for Nodes
ComputeNormalSolver: End
GroundedSolver: Computing grounded mask from geometry
SolveEquations: -------------------------------------
SolveEquations:  Coupled system iteration:            1
SolveEquations: -------------------------------------
ComputeChange: NS (ITER=1) (NRM,RELC): (  271.89049     0.45808956E-03 ) :: homologous temperature equation
ComputeChange: NS (ITER=2) (NRM,RELC): (  271.86896     0.22907200E-03 ) :: homologous temperature equation
ComputeChange: NS (ITER=3) (NRM,RELC): (  271.85820     0.11454280E-03 ) :: homologous temperature equation
ComputeChange: NS (ITER=4) (NRM,RELC): (  271.85282     0.57273102E-04 ) :: homologous temperature equation
ComputeChange: NS (ITER=5) (NRM,RELC): (  271.85013     0.28636976E-04 ) :: homologous temperature equation
ComputeChange: NS (ITER=6) (NRM,RELC): (  271.84879     0.14318594E-04 ) :: homologous temperature equation
ComputeChange: NS (ITER=7) (NRM,RELC): (  271.84812     0.71593236E-05 ) :: homologous temperature equation
ComputeChange: SS (ITER=1) (NRM,RELC): (  271.90508     0.10486212E-03 ) :: homologous temperature equation
SolveEquations: -------------------------------------
SolveEquations:  Coupled system iteration:            2
SolveEquations: -------------------------------------
ComputeChange: NS (ITER=1) (NRM,RELC): (  271.87625     0.30661009E-03 ) :: homologous temperature equation
ComputeChange: NS (ITER=2) (NRM,RELC): (  271.86184     0.15331723E-03 ) :: homologous temperature equation
ComputeChange: NS (ITER=3) (NRM,RELC): (  271.85464     0.76661663E-04 ) :: homologous temperature equation
ComputeChange: NS (ITER=4) (NRM,RELC): (  271.85104     0.38331593E-04 ) :: homologous temperature equation
ComputeChange: NS (ITER=5) (NRM,RELC): (  271.84924     0.19165987E-04 ) :: homologous temperature equation
ComputeChange: NS (ITER=6) (NRM,RELC): (  271.84834     0.95830409E-05 ) :: homologous temperature equation
ComputeChange: SS (ITER=2) (NRM,RELC): (  271.88616     0.69589972E-04 ) :: homologous temperature equation
MAIN: 
MAIN: -------------------------------------
MAIN: Time: 4/115:   4.003E+03
MAIN: Estimated time left: 14.7 minutes
MAIN: -------------------------------------
MAIN: 
ComputeChange: NS (ITER=1) (NRM,RELC): (  50.494222      0.0000000     ) :: partial update
ComputeNormalSolver: Computing Normal Vector for Nodes
ComputeNormalSolver: End
GroundedSolver: Computing grounded mask from geometry
SolveEquations: -------------------------------------
SolveEquations:  Coupled system iteration:            1
SolveEquations: -------------------------------------
ComputeChange: NS (ITER=1) (NRM,RELC): (  271.85310     0.36846911E-03 ) :: homologous temperature equation
ComputeChange: NS (ITER=2) (NRM,RELC): (  271.83658     0.18425135E-03 ) :: homologous temperature equation
ComputeChange: NS (ITER=3) (NRM,RELC): (  271.82833     0.92129874E-04 ) :: homologous temperature equation
ComputeChange: NS (ITER=4) (NRM,RELC): (  271.82420     0.46065986E-04 ) :: homologous temperature equation
ComputeChange: NS (ITER=5) (NRM,RELC): (  271.82214     0.23033255E-04 ) :: homologous temperature equation
ComputeChange: NS (ITER=6) (NRM,RELC): (  271.82110     0.11516693E-04 ) :: homologous temperature equation
ComputeChange: NS (ITER=7) (NRM,RELC): (  271.82059     0.57583630E-05 ) :: homologous temperature equation
ComputeChange: SS (ITER=1) (NRM,RELC): (  271.86429     0.80443094E-04 ) :: homologous temperature equation
MAIN: 
MAIN: -------------------------------------
MAIN: Time: 5/115:   5.003E+03
MAIN: Estimated time left:  7.8 minutes
MAIN: -------------------------------------
MAIN: 
ComputeChange: NS (ITER=1) (NRM,RELC): (  50.494222      0.0000000     ) :: partial update
ComputeNormalSolver: Computing Normal Vector for Nodes
ComputeNormalSolver: End
GroundedSolver: Computing grounded mask from geometry
SolveEquations: -------------------------------------
SolveEquations:  Coupled system iteration:            1
SolveEquations: -------------------------------------
ComputeChange: NS (ITER=1) (NRM,RELC): (  271.83514     0.33000679E-03 ) :: homologous temperature equation
ComputeChange: NS (ITER=2) (NRM,RELC): (  271.82058     0.16501666E-03 ) :: homologous temperature equation
ComputeChange: NS (ITER=3) (NRM,RELC): (  271.81330     0.82511643E-04 ) :: homologous temperature equation
ComputeChange: NS (ITER=4) (NRM,RELC): (  271.80966     0.41256650E-04 ) :: homologous temperature equation
ComputeChange: NS (ITER=5) (NRM,RELC): (  271.80785     0.20628532E-04 ) :: homologous temperature equation
ComputeChange: NS (ITER=6) (NRM,RELC): (  271.80694     0.10314318E-04 ) :: homologous temperature equation
ComputeChange: NS (ITER=7) (NRM,RELC): (  271.80648     0.51571719E-05 ) :: homologous temperature equation
ComputeChange: SS (ITER=1) (NRM,RELC): (  271.84501     0.70920263E-04 ) :: homologous temperature equation
MAIN: 
MAIN: -------------------------------------
MAIN: Time: 6/115:   1.500E+04
MAIN: Estimated time left:  7.7 minutes
MAIN: -------------------------------------
MAIN: 
ComputeChange: NS (ITER=1) (NRM,RELC): (  50.494222      0.0000000     ) :: partial update
ComputeNormalSolver: Computing Normal Vector for Nodes
ComputeNormalSolver: End
GroundedSolver: Computing grounded mask from geometry
SolveEquations: -------------------------------------
SolveEquations:  Coupled system iteration:            1
SolveEquations: -------------------------------------
ComputeChange: NS (ITER=1) (NRM,RELC): (  271.76149     0.99232965E-03 ) :: homologous temperature equation
ComputeChange: NS (ITER=2) (NRM,RELC): (  271.71982     0.49627911E-03 ) :: homologous temperature equation
ComputeChange: NS (ITER=3) (NRM,RELC): (  271.69901     0.24816809E-03 ) :: homologous temperature equation
ComputeChange: NS (ITER=4) (NRM,RELC): (  271.68861     0.12409117E-03 ) :: homologous temperature equation
ComputeChange: NS (ITER=5) (NRM,RELC): (  271.68341     0.62047366E-04 ) :: homologous temperature equation
ComputeChange: NS (ITER=6) (NRM,RELC): (  271.68081     0.31024128E-04 ) :: homologous temperature equation
ComputeChange: NS (ITER=7) (NRM,RELC): (  271.67951     0.15512175E-04 ) :: homologous temperature equation
ComputeChange: NS (ITER=8) (NRM,RELC): (  271.67886     0.77561156E-05 ) :: homologous temperature equation
ComputeChange: SS (ITER=1) (NRM,RELC): (  271.78952     0.20413794E-03 ) :: homologous temperature equation
SolveEquations: -------------------------------------
SolveEquations:  Coupled system iteration:            2
SolveEquations: -------------------------------------
ComputeChange: NS (ITER=1) (NRM,RELC): (  271.73381     0.66294662E-03 ) :: homologous temperature equation
ComputeChange: NS (ITER=2) (NRM,RELC): (  271.70600     0.33152425E-03 ) :: homologous temperature equation
ComputeChange: NS (ITER=3) (NRM,RELC): (  271.69210     0.16577485E-03 ) :: homologous temperature equation
ComputeChange: NS (ITER=4) (NRM,RELC): (  271.68516     0.82890604E-04 ) :: homologous temperature equation
ComputeChange: NS (ITER=5) (NRM,RELC): (  271.68168     0.41446097E-04 ) :: homologous temperature equation
ComputeChange: NS (ITER=6) (NRM,RELC): (  271.67995     0.20723247E-04 ) :: homologous temperature equation
ComputeChange: NS (ITER=7) (NRM,RELC): (  271.67908     0.10361673E-04 ) :: homologous temperature equation
ComputeChange: NS (ITER=8) (NRM,RELC): (  271.67865     0.51808490E-05 ) :: homologous temperature equation
ComputeChange: SS (ITER=2) (NRM,RELC): (  271.75251     0.13616221E-03 ) :: homologous temperature equation
SolveEquations: -------------------------------------
SolveEquations:  Coupled system iteration:            3
SolveEquations: -------------------------------------
ComputeChange: NS (ITER=1) (NRM,RELC): (  271.71534     0.44287283E-03 ) :: homologous temperature equation
ComputeChange: NS (ITER=2) (NRM,RELC): (  271.69677     0.22145913E-03 ) :: homologous temperature equation
ComputeChange: NS (ITER=3) (NRM,RELC): (  271.68749     0.11073524E-03 ) :: homologous temperature equation
ComputeChange: NS (ITER=4) (NRM,RELC): (  271.68285     0.55369038E-04 ) :: homologous temperature equation
ComputeChange: NS (ITER=5) (NRM,RELC): (  271.68053     0.27684874E-04 ) :: homologous temperature equation
ComputeChange: NS (ITER=6) (NRM,RELC): (  271.67937     0.13842525E-04 ) :: homologous temperature equation
ComputeChange: NS (ITER=7) (NRM,RELC): (  271.67879     0.69212849E-05 ) :: homologous temperature equation
ComputeChange: SS (ITER=3) (NRM,RELC): (  271.72792     0.90508574E-04 ) :: homologous temperature equation
MAIN: 
MAIN: -------------------------------------
MAIN: Time: 7/115:   2.500E+04
MAIN: Estimated time left: 25.5 minutes
MAIN: -------------------------------------
MAIN: 
ComputeChange: NS (ITER=1) (NRM,RELC): (  50.494222      0.0000000     ) :: partial update
ComputeNormalSolver: Computing Normal Vector for Nodes
ComputeNormalSolver: End
GroundedSolver: Computing grounded mask from geometry
SolveEquations: -------------------------------------
SolveEquations:  Coupled system iteration:            1
SolveEquations: -------------------------------------
ComputeChange: NS (ITER=1) (NRM,RELC): (  271.68559     0.54909996E-03 ) :: homologous temperature equation
ComputeChange: NS (ITER=2) (NRM,RELC): (  271.66445     0.27458205E-03 ) :: homologous temperature equation
ComputeChange: NS (ITER=3) (NRM,RELC): (  271.65389     0.13729904E-03 ) :: homologous temperature equation
ComputeChange: NS (ITER=4) (NRM,RELC): (  271.64861     0.68651520E-04 ) :: homologous temperature equation
ComputeChange: NS (ITER=5) (NRM,RELC): (  271.64597     0.34326260E-04 ) :: homologous temperature equation
ComputeChange: NS (ITER=6) (NRM,RELC): (  271.64465     0.17163255E-04 ) :: homologous temperature equation
ComputeChange: NS (ITER=7) (NRM,RELC): (  271.64399     0.85816589E-05 ) :: homologous temperature equation
ComputeChange: SS (ITER=1) (NRM,RELC): (  271.69991     0.10308514E-03 ) :: homologous temperature equation
SolveEquations: -------------------------------------
SolveEquations:  Coupled system iteration:            2
SolveEquations: -------------------------------------
ComputeChange: NS (ITER=1) (NRM,RELC): (  271.67160     0.36752499E-03 ) :: homologous temperature equation
ComputeChange: NS (ITER=2) (NRM,RELC): (  271.65746     0.18377685E-03 ) :: homologous temperature equation
ComputeChange: NS (ITER=3) (NRM,RELC): (  271.65039     0.91892013E-04 ) :: homologous temperature equation
ComputeChange: NS (ITER=4) (NRM,RELC): (  271.64686     0.45946903E-04 ) :: homologous temperature equation
ComputeChange: NS (ITER=5) (NRM,RELC): (  271.64509     0.22973676E-04 ) :: homologous temperature equation
ComputeChange: NS (ITER=6) (NRM,RELC): (  271.64421     0.11486894E-04 ) :: homologous temperature equation
ComputeChange: NS (ITER=7) (NRM,RELC): (  271.64377     0.57434609E-05 ) :: homologous temperature equation
ComputeChange: SS (ITER=2) (NRM,RELC): (  271.68118     0.68930049E-04 ) :: homologous temperature equation
MAIN: 
MAIN: -------------------------------------
MAIN: Time: 8/115:   3.500E+04
MAIN: Estimated time left: 14.9 minutes
MAIN: -------------------------------------
MAIN: 
ComputeChange: NS (ITER=1) (NRM,RELC): (  50.494222      0.0000000     ) :: partial update
ComputeNormalSolver: Computing Normal Vector for Nodes
ComputeNormalSolver: End
GroundedSolver: Computing grounded mask from geometry
SolveEquations: -------------------------------------
SolveEquations:  Coupled system iteration:            1
SolveEquations: -------------------------------------
ComputeChange: NS (ITER=1) (NRM,RELC): (  271.65493     0.37865431E-03 ) :: homologous temperature equation
ComputeChange: NS (ITER=2) (NRM,RELC): (  271.64182     0.18934087E-03 ) :: homologous temperature equation
ComputeChange: NS (ITER=3) (NRM,RELC): (  271.63527     0.94673863E-04 ) :: homologous temperature equation
ComputeChange: NS (ITER=4) (NRM,RELC): (  271.63199     0.47337788E-04 ) :: homologous temperature equation
ComputeChange: NS (ITER=5) (NRM,RELC): (  271.63035     0.23669108E-04 ) :: homologous temperature equation
ComputeChange: NS (ITER=6) (NRM,RELC): (  271.62954     0.11834608E-04 ) :: homologous temperature equation
ComputeChange: NS (ITER=7) (NRM,RELC): (  271.62913     0.59173171E-05 ) :: homologous temperature equation
ComputeChange: SS (ITER=1) (NRM,RELC): (  271.66381     0.63928022E-04 ) :: homologous temperature equation
MAIN: 
MAIN: -------------------------------------
MAIN: Time: 9/115:   4.500E+04
MAIN: Estimated time left:  7.2 minutes
MAIN: -------------------------------------
MAIN: 
ComputeChange: NS (ITER=1) (NRM,RELC): (  50.494222      0.0000000     ) :: partial update
ComputeNormalSolver: Computing Normal Vector for Nodes
ComputeNormalSolver: End
GroundedSolver: Computing grounded mask from geometry
SolveEquations: -------------------------------------
SolveEquations:  Coupled system iteration:            1
SolveEquations: -------------------------------------
ComputeChange: NS (ITER=1) (NRM,RELC): (  271.64356     0.31518198E-03 ) :: homologous temperature equation
ComputeChange: NS (ITER=2) (NRM,RELC): (  271.63344     0.15759980E-03 ) :: homologous temperature equation
ComputeChange: NS (ITER=3) (NRM,RELC): (  271.62838     0.78802102E-04 ) :: homologous temperature equation
ComputeChange: NS (ITER=4) (NRM,RELC): (  271.62585     0.39401601E-04 ) :: homologous temperature equation
ComputeChange: NS (ITER=5) (NRM,RELC): (  271.62459     0.19700938E-04 ) :: homologous temperature equation
ComputeChange: NS (ITER=6) (NRM,RELC): (  271.62395     0.98505034E-05 ) :: homologous temperature equation
ComputeChange: SS (ITER=1) (NRM,RELC): (  271.65052     0.48948712E-04 ) :: homologous temperature equation
MAIN: 
MAIN: -------------------------------------
MAIN: Time: 10/115:   5.500E+04
MAIN: Estimated time left:  6.0 minutes
MAIN: -------------------------------------
MAIN: 
ComputeChange: NS (ITER=1) (NRM,RELC): (  50.494222      0.0000000     ) :: partial update
ComputeNormalSolver: Computing Normal Vector for Nodes
ComputeNormalSolver: End
GroundedSolver: Computing grounded mask from geometry
SolveEquations: -------------------------------------
SolveEquations:  Coupled system iteration:            1
SolveEquations: -------------------------------------
ComputeChange: NS (ITER=1) (NRM,RELC): (  271.63490     0.26639191E-03 ) :: homologous temperature equation
ComputeChange: NS (ITER=2) (NRM,RELC): (  271.62710     0.13320169E-03 ) :: homologous temperature equation
ComputeChange: NS (ITER=3) (NRM,RELC): (  271.62320     0.66602282E-04 ) :: homologous temperature equation
ComputeChange: NS (ITER=4) (NRM,RELC): (  271.62125     0.33301499E-04 ) :: homologous temperature equation
ComputeChange: NS (ITER=5) (NRM,RELC): (  271.62028     0.16650839E-04 ) :: homologous temperature equation
ComputeChange: NS (ITER=6) (NRM,RELC): (  271.61979     0.83254420E-05 ) :: homologous temperature equation
ComputeChange: SS (ITER=1) (NRM,RELC): (  271.64027     0.37734147E-04 ) :: homologous temperature equation
MAIN: 
MAIN: -------------------------------------
MAIN: Time: 11/115:   1.550E+05
MAIN: Estimated time left:  6.0 minutes
MAIN: -------------------------------------
MAIN: 
ComputeChange: NS (ITER=1) (NRM,RELC): (  50.494222      0.0000000     ) :: partial update
ComputeNormalSolver: Computing Normal Vector for Nodes
ComputeNormalSolver: End
GroundedSolver: Computing grounded mask from geometry
SolveEquations: -------------------------------------
SolveEquations:  Coupled system iteration:            1
SolveEquations: -------------------------------------
ComputeChange: NS (ITER=1) (NRM,RELC): (  271.64420     0.78037969E-03 ) :: homologous temperature equation
ComputeChange: NS (ITER=2) (NRM,RELC): (  271.64622     0.39018557E-03 ) :: homologous temperature equation
ComputeChange: NS (ITER=3) (NRM,RELC): (  271.64725     0.19509169E-03 ) :: homologous temperature equation
ComputeChange: NS (ITER=4) (NRM,RELC): (  271.64777     0.97545565E-04 ) :: homologous temperature equation
ComputeChange: NS (ITER=5) (NRM,RELC): (  271.64803     0.48772713E-04 ) :: homologous temperature equation
ComputeChange: NS (ITER=6) (NRM,RELC): (  271.64816     0.24386339E-04 ) :: homologous temperature equation
ComputeChange: NS (ITER=7) (NRM,RELC): (  271.64823     0.12193165E-04 ) :: homologous temperature equation
ComputeChange: NS (ITER=8) (NRM,RELC): (  271.64826     0.60965814E-05 ) :: homologous temperature equation
ComputeChange: SS (ITER=1) (NRM,RELC): (  271.64286     0.95401629E-05 ) :: homologous temperature equation
MAIN: 
MAIN: -------------------------------------
MAIN: Time: 12/115:   2.550E+05
MAIN: Estimated time left:  8.8 minutes
MAIN: -------------------------------------
MAIN: 
ComputeChange: NS (ITER=1) (NRM,RELC): (  50.494222      0.0000000     ) :: partial update
ComputeNormalSolver: Computing Normal Vector for Nodes
ComputeNormalSolver: End
GroundedSolver: Computing grounded mask from geometry
SolveEquations: -------------------------------------
SolveEquations:  Coupled system iteration:            1
SolveEquations: -------------------------------------
ComputeChange: NS (ITER=1) (NRM,RELC): (  271.65470     0.67312517E-03 ) :: homologous temperature equation
ComputeChange: NS (ITER=2) (NRM,RELC): (  271.66067     0.33655156E-03 ) :: homologous temperature equation
ComputeChange: NS (ITER=3) (NRM,RELC): (  271.66366     0.16827300E-03 ) :: homologous temperature equation
ComputeChange: NS (ITER=4) (NRM,RELC): (  271.66516     0.84135805E-04 ) :: homologous temperature equation
ComputeChange: NS (ITER=5) (NRM,RELC): (  271.66591     0.42067728E-04 ) :: homologous temperature equation
ComputeChange: NS (ITER=6) (NRM,RELC): (  271.66629     0.21033821E-04 ) :: homologous temperature equation
ComputeChange: NS (ITER=7) (NRM,RELC): (  271.66647     0.10516899E-04 ) :: homologous temperature equation
ComputeChange: NS (ITER=8) (NRM,RELC): (  271.66657     0.52584470E-05 ) :: homologous temperature equation
ComputeChange: SS (ITER=1) (NRM,RELC): (  271.65071     0.28895862E-04 ) :: homologous temperature equation
MAIN: 
MAIN: -------------------------------------
MAIN: Time: 13/115:   3.550E+05
MAIN: Estimated time left:  8.8 minutes
MAIN: -------------------------------------
MAIN: 
ComputeChange: NS (ITER=1) (NRM,RELC): (  50.494222      0.0000000     ) :: partial update
ComputeNormalSolver: Computing Normal Vector for Nodes
ComputeNormalSolver: End
GroundedSolver: Computing grounded mask from geometry
SolveEquations: -------------------------------------
SolveEquations:  Coupled system iteration:            1
SolveEquations: -------------------------------------
ComputeChange: NS (ITER=1) (NRM,RELC): (  271.66810     0.59751555E-03 ) :: homologous temperature equation
ComputeChange: NS (ITER=2) (NRM,RELC): (  271.67684     0.29874341E-03 ) :: homologous temperature equation
ComputeChange: NS (ITER=3) (NRM,RELC): (  271.68121     0.14936810E-03 ) :: homologous temperature equation
ComputeChange: NS (ITER=4) (NRM,RELC): (  271.68340     0.74683148E-04 ) :: homologous temperature equation
ComputeChange: NS (ITER=5) (NRM,RELC): (  271.68450     0.37341348E-04 ) :: homologous temperature equation
ComputeChange: NS (ITER=6) (NRM,RELC): (  271.68505     0.18670618E-04 ) :: homologous temperature equation
ComputeChange: NS (ITER=7) (NRM,RELC): (  271.68532     0.93352947E-05 ) :: homologous temperature equation
ComputeChange: SS (ITER=1) (NRM,RELC): (  271.66220     0.42318334E-04 ) :: homologous temperature equation
MAIN: 
MAIN: -------------------------------------
MAIN: Time: 14/115:   4.550E+05
MAIN: Estimated time left:  7.2 minutes
MAIN: -------------------------------------
MAIN: 
ComputeChange: NS (ITER=1) (NRM,RELC): (  50.494222      0.0000000     ) :: partial update
ComputeNormalSolver: Computing Normal Vector for Nodes
ComputeNormalSolver: End
GroundedSolver: Computing grounded mask from geometry
SolveEquations: -------------------------------------
SolveEquations:  Coupled system iteration:            1
SolveEquations: -------------------------------------
ComputeChange: NS (ITER=1) (NRM,RELC): (  271.68351     0.54332936E-03 ) :: homologous temperature equation
ComputeChange: NS (ITER=2) (NRM,RELC): (  271.69420     0.27164869E-03 ) :: homologous temperature equation
ComputeChange: NS (ITER=3) (NRM,RELC): (  271.69955     0.13582034E-03 ) :: homologous temperature equation
ComputeChange: NS (ITER=4) (NRM,RELC): (  271.70222     0.67909164E-04 ) :: homologous temperature equation
ComputeChange: NS (ITER=5) (NRM,RELC): (  271.70356     0.33954331E-04 ) :: homologous temperature equation
ComputeChange: NS (ITER=6) (NRM,RELC): (  271.70423     0.16977103E-04 ) :: homologous temperature equation
ComputeChange: NS (ITER=7) (NRM,RELC): (  271.70457     0.84885358E-05 ) :: homologous temperature equation
ComputeChange: SS (ITER=1) (NRM,RELC): (  271.67629     0.51852964E-04 ) :: homologous temperature equation
MAIN: 
MAIN: -------------------------------------
MAIN: Time: 15/115:   5.550E+05
MAIN: Estimated time left:  7.3 minutes
MAIN: -------------------------------------
MAIN: 
ComputeChange: NS (ITER=1) (NRM,RELC): (  50.494222      0.0000000     ) :: partial update
ComputeNormalSolver: Computing Normal Vector for Nodes
ComputeNormalSolver: End
GroundedSolver: Computing grounded mask from geometry
SolveEquations: -------------------------------------
SolveEquations:  Coupled system iteration:            1
SolveEquations: -------------------------------------
ComputeChange: NS (ITER=1) (NRM,RELC): (  271.70040     0.50326030E-03 ) :: homologous temperature equation
ComputeChange: NS (ITER=2) (NRM,RELC): (  271.71248     0.25161339E-03 ) :: homologous temperature equation
ComputeChange: NS (ITER=3) (NRM,RELC): (  271.71853     0.12580250E-03 ) :: homologous temperature equation
ComputeChange: NS (ITER=4) (NRM,RELC): (  271.72155     0.62900200E-04 ) :: homologous temperature equation
ComputeChange: NS (ITER=5) (NRM,RELC): (  271.72306     0.31449838E-04 ) :: homologous temperature equation
ComputeChange: NS (ITER=6) (NRM,RELC): (  271.72382     0.15724853E-04 ) :: homologous temperature equation
ComputeChange: NS (ITER=7) (NRM,RELC): (  271.72420     0.78624101E-05 ) :: homologous temperature equation
ComputeChange: SS (ITER=1) (NRM,RELC): (  271.69223     0.58672729E-04 ) :: homologous temperature equation
MAIN: 
MAIN: -------------------------------------
MAIN: Time: 16/115:   1.555E+06
MAIN: Estimated time left:  7.0 minutes
MAIN: -------------------------------------
MAIN: 
ComputeChange: NS (ITER=1) (NRM,RELC): (  50.494222      0.0000000     ) :: partial update
ComputeNormalSolver: Computing Normal Vector for Nodes
ComputeNormalSolver: End
GroundedSolver: Computing grounded mask from geometry
SolveEquations: -------------------------------------
SolveEquations:  Coupled system iteration:            1
SolveEquations: -------------------------------------
ComputeChange: NS (ITER=1) (NRM,RELC): (  271.99839     0.30600174E-02 ) :: homologous temperature equation
ComputeChange: NS (ITER=2) (NRM,RELC): (  272.15230     0.15287151E-02 ) :: homologous temperature equation
ComputeChange: NS (ITER=3) (NRM,RELC): (  272.22946     0.76403311E-03 ) :: homologous temperature equation
ComputeChange: NS (ITER=4) (NRM,RELC): (  272.26809     0.38193532E-03 ) :: homologous temperature equation
ComputeChange: NS (ITER=5) (NRM,RELC): (  272.28741     0.19094734E-03 ) :: homologous temperature equation
ComputeChange: NS (ITER=6) (NRM,RELC): (  272.29708     0.95468584E-04 ) :: homologous temperature equation
ComputeChange: NS (ITER=7) (NRM,RELC): (  272.30192     0.47733021E-04 ) :: homologous temperature equation
ComputeChange: NS (ITER=8) (NRM,RELC): (  272.30433     0.23866193E-04 ) :: homologous temperature equation
ComputeChange: NS (ITER=9) (NRM,RELC): (  272.30554     0.11933017E-04 ) :: homologous temperature equation
ComputeChange: NS (ITER=10) (NRM,RELC): (  272.30615     0.59664886E-05 ) :: homologous temperature equation
ComputeChange: SS (ITER=1) (NRM,RELC): (  271.89589     0.74933067E-03 ) :: homologous temperature equation
SolveEquations: -------------------------------------
SolveEquations:  Coupled system iteration:            2
SolveEquations: -------------------------------------
ComputeChange: NS (ITER=1) (NRM,RELC): (  272.10083     0.20398592E-02 ) :: homologous temperature equation
ComputeChange: NS (ITER=2) (NRM,RELC): (  272.20367     0.10193529E-02 ) :: homologous temperature equation
ComputeChange: NS (ITER=3) (NRM,RELC): (  272.25518     0.50953196E-03 ) :: homologous temperature equation
ComputeChange: NS (ITER=4) (NRM,RELC): (  272.28096     0.25472982E-03 ) :: homologous temperature equation
ComputeChange: NS (ITER=5) (NRM,RELC): (  272.29385     0.12735586E-03 ) :: homologous temperature equation
ComputeChange: NS (ITER=6) (NRM,RELC): (  272.30030     0.63675671E-04 ) :: homologous temperature equation
ComputeChange: NS (ITER=7) (NRM,RELC): (  272.30353     0.31837270E-04 ) :: homologous temperature equation
ComputeChange: NS (ITER=8) (NRM,RELC): (  272.30514     0.15918493E-04 ) :: homologous temperature equation
ComputeChange: NS (ITER=9) (NRM,RELC): (  272.30594     0.79592114E-05 ) :: homologous temperature equation
ComputeChange: SS (ITER=2) (NRM,RELC): (  272.03215     0.50098919E-03 ) :: homologous temperature equation
SolveEquations: -------------------------------------
SolveEquations:  Coupled system iteration:            3
SolveEquations: -------------------------------------
ComputeChange: NS (ITER=1) (NRM,RELC): (  272.16923     0.13607223E-02 ) :: homologous temperature equation
ComputeChange: NS (ITER=2) (NRM,RELC): (  272.23794     0.68010395E-03 ) :: homologous temperature equation
ComputeChange: NS (ITER=3) (NRM,RELC): (  272.27233     0.33998759E-03 ) :: homologous temperature equation
ComputeChange: NS (ITER=4) (NRM,RELC): (  272.28954     0.16997769E-03 ) :: homologous temperature equation
ComputeChange: NS (ITER=5) (NRM,RELC): (  272.29814     0.84984815E-04 ) :: homologous temperature equation
ComputeChange: NS (ITER=6) (NRM,RELC): (  272.30245     0.42491400E-04 ) :: homologous temperature equation
ComputeChange: NS (ITER=7) (NRM,RELC): (  272.30460     0.21245448E-04 ) :: homologous temperature equation
ComputeChange: NS (ITER=8) (NRM,RELC): (  272.30567     0.10622661E-04 ) :: homologous temperature equation
ComputeChange: NS (ITER=9) (NRM,RELC): (  272.30621     0.53113149E-05 ) :: homologous temperature equation
ComputeChange: SS (ITER=3) (NRM,RELC): (  272.12331     0.33506379E-03 ) :: homologous temperature equation
SolveEquations: -------------------------------------
SolveEquations:  Coupled system iteration:            4
SolveEquations: -------------------------------------
ComputeChange: NS (ITER=1) (NRM,RELC): (  272.21493     0.90780576E-03 ) :: homologous temperature equation
ComputeChange: NS (ITER=2) (NRM,RELC): (  272.26082     0.45378824E-03 ) :: homologous temperature equation
ComputeChange: NS (ITER=3) (NRM,RELC): (  272.28378     0.22686544E-03 ) :: homologous temperature equation
ComputeChange: NS (ITER=4) (NRM,RELC): (  272.29526     0.11342554E-03 ) :: homologous temperature equation
ComputeChange: NS (ITER=5) (NRM,RELC): (  272.30101     0.56710978E-04 ) :: homologous temperature equation
ComputeChange: NS (ITER=6) (NRM,RELC): (  272.30388     0.28355040E-04 ) :: homologous temperature equation
ComputeChange: NS (ITER=7) (NRM,RELC): (  272.30531     0.14177408E-04 ) :: homologous temperature equation
ComputeChange: NS (ITER=8) (NRM,RELC): (  272.30603     0.70886760E-05 ) :: homologous temperature equation
ComputeChange: SS (ITER=4) (NRM,RELC): (  272.18413     0.22348642E-03 ) :: homologous temperature equation
SolveEquations: -------------------------------------
SolveEquations:  Coupled system iteration:            5
SolveEquations: -------------------------------------
ComputeChange: NS (ITER=1) (NRM,RELC): (  272.24540     0.60628420E-03 ) :: homologous temperature equation
ComputeChange: NS (ITER=2) (NRM,RELC): (  272.27606     0.30309092E-03 ) :: homologous temperature equation
ComputeChange: NS (ITER=3) (NRM,RELC): (  272.29140     0.15153266E-03 ) :: homologous temperature equation
ComputeChange: NS (ITER=4) (NRM,RELC): (  272.29908     0.75763127E-04 ) :: homologous temperature equation
ComputeChange: NS (ITER=5) (NRM,RELC): (  272.30291     0.37880763E-04 ) :: homologous temperature equation
ComputeChange: NS (ITER=6) (NRM,RELC): (  272.30483     0.18940181E-04 ) :: homologous temperature equation
ComputeChange: NS (ITER=7) (NRM,RELC): (  272.30579     0.94700406E-05 ) :: homologous temperature equation
ComputeChange: SS (ITER=5) (NRM,RELC): (  272.22465     0.14884246E-03 ) :: homologous temperature equation
SolveEquations: -------------------------------------
SolveEquations:  Coupled system iteration:            6
SolveEquations: -------------------------------------
ComputeChange: NS (ITER=1) (NRM,RELC): (  272.26568     0.40572303E-03 ) :: homologous temperature equation
ComputeChange: NS (ITER=2) (NRM,RELC): (  272.28621     0.20283858E-03 ) :: homologous temperature equation
ComputeChange: NS (ITER=3) (NRM,RELC): (  272.29648     0.10141355E-03 ) :: homologous temperature equation
ComputeChange: NS (ITER=4) (NRM,RELC): (  272.30161     0.50705342E-04 ) :: homologous temperature equation
ComputeChange: NS (ITER=5) (NRM,RELC): (  272.30418     0.25352313E-04 ) :: homologous temperature equation
ComputeChange: NS (ITER=6) (NRM,RELC): (  272.30547     0.12676067E-04 ) :: homologous temperature equation
ComputeChange: NS (ITER=7) (NRM,RELC): (  272.30611     0.63380109E-05 ) :: homologous temperature equation
ComputeChange: SS (ITER=6) (NRM,RELC): (  272.25178     0.99680985E-04 ) :: homologous temperature equation
MAIN: 
MAIN: -------------------------------------
MAIN: Time: 17/115:   2.555E+06
MAIN: Estimated time left: 50.5 minutes
MAIN: -------------------------------------
MAIN: 
ComputeChange: NS (ITER=1) (NRM,RELC): (  50.494222      0.0000000     ) :: partial update
ComputeNormalSolver: Computing Normal Vector for Nodes
ComputeNormalSolver: End
GroundedSolver: Computing grounded mask from geometry
SolveEquations: -------------------------------------
SolveEquations:  Coupled system iteration:            1
SolveEquations: -------------------------------------
ComputeChange: NS (ITER=1) (NRM,RELC): (  272.53618     0.24067217E-02 ) :: homologous temperature equation
ComputeChange: NS (ITER=2) (NRM,RELC): (  272.67886     0.12024182E-02 ) :: homologous temperature equation
ComputeChange: NS (ITER=3) (NRM,RELC): (  272.75032     0.60097308E-03 ) :: homologous temperature equation
ComputeChange: NS (ITER=4) (NRM,RELC): (  272.78608     0.30042748E-03 ) :: homologous temperature equation
ComputeChange: NS (ITER=5) (NRM,RELC): (  272.80397     0.15019897E-03 ) :: homologous temperature equation
ComputeChange: NS (ITER=6) (NRM,RELC): (  272.81291     0.75095793E-04 ) :: homologous temperature equation
ComputeChange: NS (ITER=7) (NRM,RELC): (  272.81739     0.37546973E-04 ) :: homologous temperature equation
ComputeChange: NS (ITER=8) (NRM,RELC): (  272.81962     0.18773256E-04 ) :: homologous temperature equation
ComputeChange: NS (ITER=9) (NRM,RELC): (  272.82074     0.93865701E-05 ) :: homologous temperature equation
ComputeChange: SS (ITER=1) (NRM,RELC): (  272.44087     0.69428628E-03 ) :: homologous temperature equation
SolveEquations: -------------------------------------
SolveEquations:  Coupled system iteration:            2
SolveEquations: -------------------------------------
ComputeChange: NS (ITER=1) (NRM,RELC): (  272.63108     0.16052113E-02 ) :: homologous temperature equation
ComputeChange: NS (ITER=2) (NRM,RELC): (  272.72640     0.80218542E-03 ) :: homologous temperature equation
[...]
SolveEquations: -------------------------------------
SolveEquations:  Coupled system iteration:            1
SolveEquations: -------------------------------------
ComputeChange: NS (ITER=1) (NRM,RELC): (  275.15313     0.70195813E-05 ) :: homologous temperature equation
ComputeChange: SS (ITER=1) (NRM,RELC): (  275.15250     0.11429308E-05 ) :: homologous temperature equation
MAIN: 
MAIN: -------------------------------------
MAIN: Time: 91/115:   7.656E+07
MAIN: Estimated time left: 14.6 seconds
MAIN: -------------------------------------
MAIN: 
ComputeChange: NS (ITER=1) (NRM,RELC): (  50.494222      0.0000000     ) :: partial update
ComputeNormalSolver: Computing Normal Vector for Nodes
ComputeNormalSolver: End
GroundedSolver: Computing grounded mask from geometry
SolveEquations: -------------------------------------
SolveEquations:  Coupled system iteration:            1
SolveEquations: -------------------------------------
ComputeChange: NS (ITER=1) (NRM,RELC): (  275.15341     0.67696549E-05 ) :: homologous temperature equation
ComputeChange: SS (ITER=1) (NRM,RELC): (  275.15280     0.11022416E-05 ) :: homologous temperature equation
MAIN: 
MAIN: -------------------------------------
MAIN: Time: 92/115:   7.756E+07
MAIN: Estimated time left: 14.0 seconds
MAIN: -------------------------------------
MAIN: 
ComputeChange: NS (ITER=1) (NRM,RELC): (  50.494222      0.0000000     ) :: partial update
ComputeNormalSolver: Computing Normal Vector for Nodes
ComputeNormalSolver: End
GroundedSolver: Computing grounded mask from geometry
SolveEquations: -------------------------------------
SolveEquations:  Coupled system iteration:            1
SolveEquations: -------------------------------------
ComputeChange: NS (ITER=1) (NRM,RELC): (  275.15368     0.65286272E-05 ) :: homologous temperature equation
ComputeChange: SS (ITER=1) (NRM,RELC): (  275.15309     0.10630008E-05 ) :: homologous temperature equation
MAIN: 
MAIN: -------------------------------------
MAIN: Time: 93/115:   7.856E+07
MAIN: Estimated time left: 13.6 seconds
MAIN: -------------------------------------
MAIN: 
ComputeChange: NS (ITER=1) (NRM,RELC): (  50.494222      0.0000000     ) :: partial update
ComputeNormalSolver: Computing Normal Vector for Nodes
ComputeNormalSolver: End
GroundedSolver: Computing grounded mask from geometry
SolveEquations: -------------------------------------
SolveEquations:  Coupled system iteration:            1
SolveEquations: -------------------------------------
ComputeChange: NS (ITER=1) (NRM,RELC): (  275.15394     0.62961812E-05 ) :: homologous temperature equation
ComputeChange: SS (ITER=1) (NRM,RELC): (  275.15338     0.10251570E-05 ) :: homologous temperature equation
MAIN: 
MAIN: -------------------------------------
MAIN: Time: 94/115:   7.956E+07
MAIN: Estimated time left: 12.8 seconds
MAIN: -------------------------------------
MAIN: 
ComputeChange: NS (ITER=1) (NRM,RELC): (  50.494222      0.0000000     ) :: partial update
ComputeNormalSolver: Computing Normal Vector for Nodes
ComputeNormalSolver: End
GroundedSolver: Computing grounded mask from geometry
SolveEquations: -------------------------------------
SolveEquations:  Coupled system iteration:            1
SolveEquations: -------------------------------------
ComputeChange: NS (ITER=1) (NRM,RELC): (  275.15419     0.60720116E-05 ) :: homologous temperature equation
ComputeChange: SS (ITER=1) (NRM,RELC): (  275.15365     0.98866039E-06 ) :: homologous temperature equation
MAIN: 
MAIN: -------------------------------------
MAIN: Time: 95/115:   8.056E+07
MAIN: Estimated time left: 12.3 seconds
MAIN: -------------------------------------
MAIN: 
ComputeChange: NS (ITER=1) (NRM,RELC): (  50.494222      0.0000000     ) :: partial update
ComputeNormalSolver: Computing Normal Vector for Nodes
ComputeNormalSolver: End
GroundedSolver: Computing grounded mask from geometry
SolveEquations: -------------------------------------
SolveEquations:  Coupled system iteration:            1
SolveEquations: -------------------------------------
ComputeChange: NS (ITER=1) (NRM,RELC): (  275.15444     0.58558234E-05 ) :: homologous temperature equation
ComputeChange: SS (ITER=1) (NRM,RELC): (  275.15391     0.95346301E-06 ) :: homologous temperature equation
MAIN: 
MAIN: -------------------------------------
MAIN: Time: 96/115:   8.156E+07
MAIN: Estimated time left: 11.7 seconds
MAIN: -------------------------------------
MAIN: 
ComputeChange: NS (ITER=1) (NRM,RELC): (  50.494222      0.0000000     ) :: partial update
ComputeNormalSolver: Computing Normal Vector for Nodes
ComputeNormalSolver: End
GroundedSolver: Computing grounded mask from geometry
SolveEquations: -------------------------------------
SolveEquations:  Coupled system iteration:            1
SolveEquations: -------------------------------------
ComputeChange: NS (ITER=1) (NRM,RELC): (  275.15467     0.56473327E-05 ) :: homologous temperature equation
ComputeChange: SS (ITER=1) (NRM,RELC): (  275.15416     0.91951862E-06 ) :: homologous temperature equation
MAIN: 
MAIN: -------------------------------------
MAIN: Time: 97/115:   8.256E+07
MAIN: Estimated time left: 19.9 seconds
MAIN: -------------------------------------
MAIN: 
ComputeChange: NS (ITER=1) (NRM,RELC): (  50.494222      0.0000000     ) :: partial update
ComputeNormalSolver: Computing Normal Vector for Nodes
ComputeNormalSolver: End
GroundedSolver: Computing grounded mask from geometry
SolveEquations: -------------------------------------
SolveEquations:  Coupled system iteration:            1
SolveEquations: -------------------------------------
ComputeChange: NS (ITER=1) (NRM,RELC): (  275.15490     0.54462652E-05 ) :: homologous temperature equation
ComputeChange: SS (ITER=1) (NRM,RELC): (  275.15441     0.88678263E-06 ) :: homologous temperature equation
MAIN: 
MAIN: -------------------------------------
MAIN: Time: 98/115:   8.356E+07
MAIN: Estimated time left: 14.8 seconds
MAIN: -------------------------------------
MAIN: 
ComputeChange: NS (ITER=1) (NRM,RELC): (  50.494222      0.0000000     ) :: partial update
ComputeNormalSolver: Computing Normal Vector for Nodes
ComputeNormalSolver: End
GroundedSolver: Computing grounded mask from geometry
SolveEquations: -------------------------------------
SolveEquations:  Coupled system iteration:            1
SolveEquations: -------------------------------------
ComputeChange: NS (ITER=1) (NRM,RELC): (  275.15511     0.52523567E-05 ) :: homologous temperature equation
ComputeChange: SS (ITER=1) (NRM,RELC): (  275.15464     0.85521201E-06 ) :: homologous temperature equation
MAIN: 
MAIN: -------------------------------------
MAIN: Time: 99/115:   8.456E+07
MAIN: Estimated time left:  9.9 seconds
MAIN: -------------------------------------
MAIN: 
ComputeChange: NS (ITER=1) (NRM,RELC): (  50.494222      0.0000000     ) :: partial update
ComputeNormalSolver: Computing Normal Vector for Nodes
ComputeNormalSolver: End
GroundedSolver: Computing grounded mask from geometry
SolveEquations: -------------------------------------
SolveEquations:  Coupled system iteration:            1
SolveEquations: -------------------------------------
ComputeChange: NS (ITER=1) (NRM,RELC): (  275.15532     0.50653522E-05 ) :: homologous temperature equation
ComputeChange: SS (ITER=1) (NRM,RELC): (  275.15487     0.82476530E-06 ) :: homologous temperature equation
MAIN: 
MAIN: -------------------------------------
MAIN: Time: 100/115:   8.556E+07
MAIN: Estimated time left:  9.4 seconds
MAIN: -------------------------------------
MAIN: 
ComputeChange: NS (ITER=1) (NRM,RELC): (  50.494222      0.0000000     ) :: partial update
ComputeNormalSolver: Computing Normal Vector for Nodes
ComputeNormalSolver: End
GroundedSolver: Computing grounded mask from geometry
SolveEquations: -------------------------------------
SolveEquations:  Coupled system iteration:            1
SolveEquations: -------------------------------------
ComputeChange: NS (ITER=1) (NRM,RELC): (  275.15553     0.48850059E-05 ) :: homologous temperature equation
ComputeChange: SS (ITER=1) (NRM,RELC): (  275.15509     0.79540248E-06 ) :: homologous temperature equation
MAIN: 
MAIN: -------------------------------------
MAIN: Time: 101/115:   8.656E+07
MAIN: Estimated time left:  8.8 seconds
MAIN: -------------------------------------
MAIN: 
ComputeChange: NS (ITER=1) (NRM,RELC): (  50.494222      0.0000000     ) :: partial update
ComputeNormalSolver: Computing Normal Vector for Nodes
ComputeNormalSolver: End
GroundedSolver: Computing grounded mask from geometry
SolveEquations: -------------------------------------
SolveEquations:  Coupled system iteration:            1
SolveEquations: -------------------------------------
ComputeChange: NS (ITER=1) (NRM,RELC): (  275.15572     0.47110808E-05 ) :: homologous temperature equation
ComputeChange: SS (ITER=1) (NRM,RELC): (  275.15530     0.76708496E-06 ) :: homologous temperature equation
MAIN: 
MAIN: -------------------------------------
MAIN: Time: 102/115:   8.756E+07
MAIN: Estimated time left:  8.2 seconds
MAIN: -------------------------------------
MAIN: 
ComputeChange: NS (ITER=1) (NRM,RELC): (  50.494222      0.0000000     ) :: partial update
ComputeNormalSolver: Computing Normal Vector for Nodes
ComputeNormalSolver: End
GroundedSolver: Computing grounded mask from geometry
SolveEquations: -------------------------------------
SolveEquations:  Coupled system iteration:            1
SolveEquations: -------------------------------------
ComputeChange: NS (ITER=1) (NRM,RELC): (  275.15591     0.45433483E-05 ) :: homologous temperature equation
ComputeChange: SS (ITER=1) (NRM,RELC): (  275.15550     0.73977555E-06 ) :: homologous temperature equation
MAIN: 
MAIN: -------------------------------------
MAIN: Time: 103/115:   8.856E+07
MAIN: Estimated time left:  7.5 seconds
MAIN: -------------------------------------
MAIN: 
ComputeChange: NS (ITER=1) (NRM,RELC): (  50.494222      0.0000000     ) :: partial update
ComputeNormalSolver: Computing Normal Vector for Nodes
ComputeNormalSolver: End
GroundedSolver: Computing grounded mask from geometry
SolveEquations: -------------------------------------
SolveEquations:  Coupled system iteration:            1
SolveEquations: -------------------------------------
ComputeChange: NS (ITER=1) (NRM,RELC): (  275.15609     0.43815877E-05 ) :: homologous temperature equation
ComputeChange: SS (ITER=1) (NRM,RELC): (  275.15570     0.71343835E-06 ) :: homologous temperature equation
MAIN: 
MAIN: -------------------------------------
MAIN: Time: 104/115:   8.956E+07
MAIN: Estimated time left:  6.9 seconds
MAIN: -------------------------------------
MAIN: 
ComputeChange: NS (ITER=1) (NRM,RELC): (  50.494222      0.0000000     ) :: partial update
ComputeNormalSolver: Computing Normal Vector for Nodes
ComputeNormalSolver: End
GroundedSolver: Computing grounded mask from geometry
SolveEquations: -------------------------------------
SolveEquations:  Coupled system iteration:            1
SolveEquations: -------------------------------------
ComputeChange: NS (ITER=1) (NRM,RELC): (  275.15627     0.42255866E-05 ) :: homologous temperature equation
ComputeChange: SS (ITER=1) (NRM,RELC): (  275.15589     0.68803875E-06 ) :: homologous temperature equation
MAIN: 
MAIN: -------------------------------------
MAIN: Time: 105/115:   9.056E+07
MAIN: Estimated time left:  6.4 seconds
MAIN: -------------------------------------
MAIN: 
ComputeChange: NS (ITER=1) (NRM,RELC): (  50.494222      0.0000000     ) :: partial update
ComputeNormalSolver: Computing Normal Vector for Nodes
ComputeNormalSolver: End
GroundedSolver: Computing grounded mask from geometry
SolveEquations: -------------------------------------
SolveEquations:  Coupled system iteration:            1
SolveEquations: -------------------------------------
ComputeChange: NS (ITER=1) (NRM,RELC): (  275.15644     0.40751398E-05 ) :: homologous temperature equation
ComputeChange: SS (ITER=1) (NRM,RELC): (  275.15607     0.66354339E-06 ) :: homologous temperature equation
MAIN: 
MAIN: -------------------------------------
MAIN: Time: 106/115:   9.156E+07
MAIN: Estimated time left:  5.9 seconds
MAIN: -------------------------------------
MAIN: 
ComputeChange: NS (ITER=1) (NRM,RELC): (  50.494222      0.0000000     ) :: partial update
ComputeNormalSolver: Computing Normal Vector for Nodes
ComputeNormalSolver: End
GroundedSolver: Computing grounded mask from geometry
SolveEquations: -------------------------------------
SolveEquations:  Coupled system iteration:            1
SolveEquations: -------------------------------------
ComputeChange: NS (ITER=1) (NRM,RELC): (  275.15660     0.39300495E-05 ) :: homologous temperature equation
ComputeChange: SS (ITER=1) (NRM,RELC): (  275.15625     0.63992007E-06 ) :: homologous temperature equation
MAIN: 
MAIN: -------------------------------------
MAIN: Time: 107/115:   9.256E+07
MAIN: Estimated time left:  9.8 seconds
MAIN: -------------------------------------
MAIN: 
ComputeChange: NS (ITER=1) (NRM,RELC): (  50.494222      0.0000000     ) :: partial update
ComputeNormalSolver: Computing Normal Vector for Nodes
ComputeNormalSolver: End
GroundedSolver: Computing grounded mask from geometry
SolveEquations: -------------------------------------
SolveEquations:  Coupled system iteration:            1
SolveEquations: -------------------------------------
ComputeChange: NS (ITER=1) (NRM,RELC): (  275.15676     0.37901251E-05 ) :: homologous temperature equation
ComputeChange: SS (ITER=1) (NRM,RELC): (  275.15642     0.61713775E-06 ) :: homologous temperature equation
MAIN: 
MAIN: -------------------------------------
MAIN: Time: 108/115:   9.356E+07
MAIN: Estimated time left:  5.8 seconds
MAIN: -------------------------------------
MAIN: 
ComputeChange: NS (ITER=1) (NRM,RELC): (  50.494222      0.0000000     ) :: partial update
ComputeNormalSolver: Computing Normal Vector for Nodes
ComputeNormalSolver: End
GroundedSolver: Computing grounded mask from geometry
SolveEquations: -------------------------------------
SolveEquations:  Coupled system iteration:            1
SolveEquations: -------------------------------------
ComputeChange: NS (ITER=1) (NRM,RELC): (  275.15691     0.36551826E-05 ) :: homologous temperature equation
ComputeChange: SS (ITER=1) (NRM,RELC): (  275.15658     0.59516650E-06 ) :: homologous temperature equation
MAIN: 
MAIN: -------------------------------------
MAIN: Time: 109/115:   9.456E+07
MAIN: Estimated time left:  4.1 seconds
MAIN: -------------------------------------
MAIN: 
ComputeChange: NS (ITER=1) (NRM,RELC): (  50.494222      0.0000000     ) :: partial update
ComputeNormalSolver: Computing Normal Vector for Nodes
ComputeNormalSolver: End
GroundedSolver: Computing grounded mask from geometry
SolveEquations: -------------------------------------
SolveEquations:  Coupled system iteration:            1
SolveEquations: -------------------------------------
ComputeChange: NS (ITER=1) (NRM,RELC): (  275.15706     0.35250446E-05 ) :: homologous temperature equation
ComputeChange: SS (ITER=1) (NRM,RELC): (  275.15674     0.57397743E-06 ) :: homologous temperature equation
MAIN: 
MAIN: -------------------------------------
MAIN: Time: 110/115:   9.556E+07
MAIN: Estimated time left:  3.5 seconds
MAIN: -------------------------------------
MAIN: 
ComputeChange: NS (ITER=1) (NRM,RELC): (  50.494222      0.0000000     ) :: partial update
ComputeNormalSolver: Computing Normal Vector for Nodes
ComputeNormalSolver: End
GroundedSolver: Computing grounded mask from geometry
SolveEquations: -------------------------------------
SolveEquations:  Coupled system iteration:            1
SolveEquations: -------------------------------------
ComputeChange: NS (ITER=1) (NRM,RELC): (  275.15720     0.33995401E-05 ) :: homologous temperature equation
ComputeChange: SS (ITER=1) (NRM,RELC): (  275.15689     0.55354271E-06 ) :: homologous temperature equation
MAIN: 
MAIN: -------------------------------------
MAIN: Time: 111/115:   9.656E+07
MAIN: Estimated time left:  2.9 seconds
MAIN: -------------------------------------
MAIN: 
ComputeChange: NS (ITER=1) (NRM,RELC): (  50.494222      0.0000000     ) :: partial update
ComputeNormalSolver: Computing Normal Vector for Nodes
ComputeNormalSolver: End
GroundedSolver: Computing grounded mask from geometry
SolveEquations: -------------------------------------
SolveEquations:  Coupled system iteration:            1
SolveEquations: -------------------------------------
ComputeChange: NS (ITER=1) (NRM,RELC): (  275.15733     0.32785040E-05 ) :: homologous temperature equation
ComputeChange: SS (ITER=1) (NRM,RELC): (  275.15704     0.53383548E-06 ) :: homologous temperature equation
MAIN: 
MAIN: -------------------------------------
MAIN: Time: 112/115:   9.756E+07
MAIN: Estimated time left:  2.4 seconds
MAIN: -------------------------------------
MAIN: 
ComputeChange: NS (ITER=1) (NRM,RELC): (  50.494222      0.0000000     ) :: partial update
ComputeNormalSolver: Computing Normal Vector for Nodes
ComputeNormalSolver: End
GroundedSolver: Computing grounded mask from geometry
SolveEquations: -------------------------------------
SolveEquations:  Coupled system iteration:            1
SolveEquations: -------------------------------------
ComputeChange: NS (ITER=1) (NRM,RELC): (  275.15746     0.31617773E-05 ) :: homologous temperature equation
ComputeChange: SS (ITER=1) (NRM,RELC): (  275.15718     0.51482984E-06 ) :: homologous temperature equation
MAIN: 
MAIN: -------------------------------------
MAIN: Time: 113/115:   9.856E+07
MAIN: Estimated time left:  1.8 seconds
MAIN: -------------------------------------
MAIN: 
ComputeChange: NS (ITER=1) (NRM,RELC): (  50.494222      0.0000000     ) :: partial update
ComputeNormalSolver: Computing Normal Vector for Nodes
ComputeNormalSolver: End
GroundedSolver: Computing grounded mask from geometry
SolveEquations: -------------------------------------
SolveEquations:  Coupled system iteration:            1
SolveEquations: -------------------------------------
ComputeChange: NS (ITER=1) (NRM,RELC): (  275.15759     0.30492066E-05 ) :: homologous temperature equation
ComputeChange: SS (ITER=1) (NRM,RELC): (  275.15732     0.49650083E-06 ) :: homologous temperature equation
MAIN: 
MAIN: -------------------------------------
MAIN: Time: 114/115:   9.956E+07
MAIN: Estimated time left:  1.2 seconds
MAIN: -------------------------------------
MAIN: 
ComputeChange: NS (ITER=1) (NRM,RELC): (  50.494222      0.0000000     ) :: partial update
ComputeNormalSolver: Computing Normal Vector for Nodes
ComputeNormalSolver: End
GroundedSolver: Computing grounded mask from geometry
SolveEquations: -------------------------------------
SolveEquations:  Coupled system iteration:            1
SolveEquations: -------------------------------------
ComputeChange: NS (ITER=1) (NRM,RELC): (  275.15771     0.29406439E-05 ) :: homologous temperature equation
ComputeChange: SS (ITER=1) (NRM,RELC): (  275.15745     0.47882434E-06 ) :: homologous temperature equation
MAIN: 
MAIN: -------------------------------------
MAIN: Time: 115/115:   1.006E+08
MAIN: -------------------------------------
MAIN: 
ComputeChange: NS (ITER=1) (NRM,RELC): (  50.494222      0.0000000     ) :: partial update
ComputeNormalSolver: Computing Normal Vector for Nodes
ComputeNormalSolver: End
GroundedSolver: Computing grounded mask from geometry
SolveEquations: -------------------------------------
SolveEquations:  Coupled system iteration:            1
SolveEquations: -------------------------------------
ComputeChange: NS (ITER=1) (NRM,RELC): (  275.15783     0.28359464E-05 ) :: homologous temperature equation
ComputeChange: SS (ITER=1) (NRM,RELC): (  275.15758     0.46177716E-06 ) :: homologous temperature equation
MAIN: *** Elmer Solver: ALL DONE ***
MAIN: The end
SOLVER TOTAL TIME(CPU,REAL):       419.07      510.07
ELMER SOLVER FINISHED AT: 2026/03/17 13:15:14
