ELMER SOLVER (v 9.0) STARTED AT: 2026/03/17 13:06:11
ELMER SOLVER (v 9.0) STARTED AT: 2026/03/17 13:06:11
ELMER SOLVER (v 9.0) STARTED AT: 2026/03/17 13:06:11
ELMER SOLVER (v 9.0) STARTED AT: 2026/03/17 13:06:11
ELMER SOLVER (v 9.0) STARTED AT: 2026/03/17 13:06:11
ELMER SOLVER (v 9.0) STARTED AT: 2026/03/17 13:06:11
ELMER SOLVER (v 9.0) STARTED AT: 2026/03/17 13:06:11
ELMER SOLVER (v 9.0) STARTED AT: 2026/03/17 13:06:11
ELMER SOLVER (v 9.0) STARTED AT: 2026/03/17 13:06:11
ELMER SOLVER (v 9.0) STARTED AT: 2026/03/17 13:06:11
ELMER SOLVER (v 9.0) STARTED AT: 2026/03/17 13:06:11
ELMER SOLVER (v 9.0) STARTED AT: 2026/03/17 13:06:11
ELMER SOLVER (v 9.0) STARTED AT: 2026/03/17 13:06:11
ELMER SOLVER (v 9.0) STARTED AT: 2026/03/17 13:06:11
ELMER SOLVER (v 9.0) STARTED AT: 2026/03/17 13:06:11
ELMER SOLVER (v 9.0) STARTED AT: 2026/03/17 13:06:11
ELMER SOLVER (v 9.0) STARTED AT: 2026/03/17 13:06:11
ELMER SOLVER (v 9.0) STARTED AT: 2026/03/17 13:06:11
ELMER SOLVER (v 9.0) STARTED AT: 2026/03/17 13:06:11
ELMER SOLVER (v 9.0) STARTED AT: 2026/03/17 13:06:11
ELMER SOLVER (v 9.0) STARTED AT: 2026/03/17 13:06:11
ELMER SOLVER (v 9.0) STARTED AT: 2026/03/17 13:06:11
ELMER SOLVER (v 9.0) STARTED AT: 2026/03/17 13:06:11
ELMER SOLVER (v 9.0) STARTED AT: 2026/03/17 13:06:11
ELMER SOLVER (v 9.0) STARTED AT: 2026/03/17 13:06:11
ELMER SOLVER (v 9.0) STARTED AT: 2026/03/17 13:06:11
ELMER SOLVER (v 9.0) STARTED AT: 2026/03/17 13:06:11
ELMER SOLVER (v 9.0) STARTED AT: 2026/03/17 13:06:11
ELMER SOLVER (v 9.0) STARTED AT: 2026/03/17 13:06:11
ELMER SOLVER (v 9.0) STARTED AT: 2026/03/17 13:06:11
ELMER SOLVER (v 9.0) STARTED AT: 2026/03/17 13:06:11
ELMER SOLVER (v 9.0) STARTED AT: 2026/03/17 13:06:11
ELMER SOLVER (v 9.0) STARTED AT: 2026/03/17 13:06:11
ELMER SOLVER (v 9.0) STARTED AT: 2026/03/17 13:06:11
ELMER SOLVER (v 9.0) STARTED AT: 2026/03/17 13:06:11
ELMER SOLVER (v 9.0) STARTED AT: 2026/03/17 13:06:11
ELMER SOLVER (v 9.0) STARTED AT: 2026/03/17 13:06:11
ELMER SOLVER (v 9.0) STARTED AT: 2026/03/17 13:06:11
ELMER SOLVER (v 9.0) STARTED AT: 2026/03/17 13:06:11
ELMER SOLVER (v 9.0) STARTED AT: 2026/03/17 13:06:11
ELMER SOLVER (v 9.0) STARTED AT: 2026/03/17 13:06:11
ELMER SOLVER (v 9.0) STARTED AT: 2026/03/17 13:06:11
ELMER SOLVER (v 9.0) STARTED AT: 2026/03/17 13:06:11
ELMER SOLVER (v 9.0) STARTED AT: 2026/03/17 13:06:11
ELMER SOLVER (v 9.0) STARTED AT: 2026/03/17 13:06:11
ELMER SOLVER (v 9.0) STARTED AT: 2026/03/17 13:06:11
ELMER SOLVER (v 9.0) STARTED AT: 2026/03/17 13:06:11
ELMER SOLVER (v 9.0) STARTED AT: 2026/03/17 13:06:11
ELMER SOLVER (v 9.0) STARTED AT: 2026/03/17 13:06:11
ELMER SOLVER (v 9.0) STARTED AT: 2026/03/17 13:06:11
ELMER SOLVER (v 9.0) STARTED AT: 2026/03/17 13:06:11
ELMER SOLVER (v 9.0) STARTED AT: 2026/03/17 13:06:11
ELMER SOLVER (v 9.0) STARTED AT: 2026/03/17 13:06:11
ELMER SOLVER (v 9.0) STARTED AT: 2026/03/17 13:06:11
ELMER SOLVER (v 9.0) STARTED AT: 2026/03/17 13:06:11
ELMER SOLVER (v 9.0) STARTED AT: 2026/03/17 13:06:11
ELMER SOLVER (v 9.0) STARTED AT: 2026/03/17 13:06:11
ELMER SOLVER (v 9.0) STARTED AT: 2026/03/17 13:06:11
ELMER SOLVER (v 9.0) STARTED AT: 2026/03/17 13:06:11
ELMER SOLVER (v 9.0) STARTED AT: 2026/03/17 13:06:11
ELMER SOLVER (v 9.0) STARTED AT: 2026/03/17 13:06:11
ELMER SOLVER (v 9.0) STARTED AT: 2026/03/17 13:06:11
ELMER SOLVER (v 9.0) STARTED AT: 2026/03/17 13:06:11
ELMER SOLVER (v 9.0) STARTED AT: 2026/03/17 13:06:11
ELMER SOLVER (v 9.0) STARTED AT: 2026/03/17 13:06:11
ELMER SOLVER (v 9.0) STARTED AT: 2026/03/17 13:06:11
ELMER SOLVER (v 9.0) STARTED AT: 2026/03/17 13:06:11
ELMER SOLVER (v 9.0) STARTED AT: 2026/03/17 13:06:11
ELMER SOLVER (v 9.0) STARTED AT: 2026/03/17 13:06:11
ELMER SOLVER (v 9.0) STARTED AT: 2026/03/17 13:06:11
ELMER SOLVER (v 9.0) STARTED AT: 2026/03/17 13:06:11
ELMER SOLVER (v 9.0) STARTED AT: 2026/03/17 13:06:11
ELMER SOLVER (v 9.0) STARTED AT: 2026/03/17 13:06:11
ELMER SOLVER (v 9.0) STARTED AT: 2026/03/17 13:06:11
ELMER SOLVER (v 9.0) STARTED AT: 2026/03/17 13:06:11
ELMER SOLVER (v 9.0) STARTED AT: 2026/03/17 13:06:11
ELMER SOLVER (v 9.0) STARTED AT: 2026/03/17 13:06:11
ELMER SOLVER (v 9.0) STARTED AT: 2026/03/17 13:06:11
ELMER SOLVER (v 9.0) STARTED AT: 2026/03/17 13:06:11
ELMER SOLVER (v 9.0) STARTED AT: 2026/03/17 13:06:11
ELMER SOLVER (v 9.0) STARTED AT: 2026/03/17 13:06:11
ELMER SOLVER (v 9.0) STARTED AT: 2026/03/17 13:06:11
ELMER SOLVER (v 9.0) STARTED AT: 2026/03/17 13:06:11
ELMER SOLVER (v 9.0) STARTED AT: 2026/03/17 13:06:11
ELMER SOLVER (v 9.0) STARTED AT: 2026/03/17 13:06:11
ELMER SOLVER (v 9.0) STARTED AT: 2026/03/17 13:06:11
ELMER SOLVER (v 9.0) STARTED AT: 2026/03/17 13:06:11
ELMER SOLVER (v 9.0) STARTED AT: 2026/03/17 13:06:11
ELMER SOLVER (v 9.0) STARTED AT: 2026/03/17 13:06:11
ELMER SOLVER (v 9.0) STARTED AT: 2026/03/17 13:06:11
ELMER SOLVER (v 9.0) STARTED AT: 2026/03/17 13:06:11
ELMER SOLVER (v 9.0) STARTED AT: 2026/03/17 13:06:11
ELMER SOLVER (v 9.0) STARTED AT: 2026/03/17 13:06:11
ELMER SOLVER (v 9.0) STARTED AT: 2026/03/17 13:06:11
ELMER SOLVER (v 9.0) STARTED AT: 2026/03/17 13:06:11
ELMER SOLVER (v 9.0) STARTED AT: 2026/03/17 13:06:11
ELMER SOLVER (v 9.0) STARTED AT: 2026/03/17 13:06:11
ELMER SOLVER (v 9.0) STARTED AT: 2026/03/17 13:06:11
ELMER SOLVER (v 9.0) STARTED AT: 2026/03/17 13:06:11
ELMER SOLVER (v 9.0) STARTED AT: 2026/03/17 13:06:11
ELMER SOLVER (v 9.0) STARTED AT: 2026/03/17 13:06:11
ELMER SOLVER (v 9.0) STARTED AT: 2026/03/17 13:06:11
ELMER SOLVER (v 9.0) STARTED AT: 2026/03/17 13:06:11
ELMER SOLVER (v 9.0) STARTED AT: 2026/03/17 13:06:11
ELMER SOLVER (v 9.0) STARTED AT: 2026/03/17 13:06:11
ELMER SOLVER (v 9.0) STARTED AT: 2026/03/17 13:06:11
ELMER SOLVER (v 9.0) STARTED AT: 2026/03/17 13:06:11
ELMER SOLVER (v 9.0) STARTED AT: 2026/03/17 13:06:11
ELMER SOLVER (v 9.0) STARTED AT: 2026/03/17 13:06:11
ELMER SOLVER (v 9.0) STARTED AT: 2026/03/17 13:06:11
ELMER SOLVER (v 9.0) STARTED AT: 2026/03/17 13:06:11
ELMER SOLVER (v 9.0) STARTED AT: 2026/03/17 13:06:11
ELMER SOLVER (v 9.0) STARTED AT: 2026/03/17 13:06:11
ELMER SOLVER (v 9.0) STARTED AT: 2026/03/17 13:06:11
ELMER SOLVER (v 9.0) STARTED AT: 2026/03/17 13:06:11
ELMER SOLVER (v 9.0) STARTED AT: 2026/03/17 13:06:11
ELMER SOLVER (v 9.0) STARTED AT: 2026/03/17 13:06:11
ELMER SOLVER (v 9.0) STARTED AT: 2026/03/17 13:06:11
ELMER SOLVER (v 9.0) STARTED AT: 2026/03/17 13:06:11
ELMER SOLVER (v 9.0) STARTED AT: 2026/03/17 13:06:11
ELMER SOLVER (v 9.0) STARTED AT: 2026/03/17 13:06:11
ELMER SOLVER (v 9.0) STARTED AT: 2026/03/17 13:06:11
ELMER SOLVER (v 9.0) STARTED AT: 2026/03/17 13:06:11
ELMER SOLVER (v 9.0) STARTED AT: 2026/03/17 13:06:11
ELMER SOLVER (v 9.0) STARTED AT: 2026/03/17 13:06:11
ELMER SOLVER (v 9.0) STARTED AT: 2026/03/17 13:06:11
ELMER SOLVER (v 9.0) STARTED AT: 2026/03/17 13:06:11
ELMER SOLVER (v 9.0) STARTED AT: 2026/03/17 13:06:11
ParCommInit: Initialize #PEs: 128
ParCommInit: Initialize #PEs: 128
MAIN: 
MAIN: =============================================================
MAIN: ElmerSolver finite element software, Welcome!
MAIN: This program is free software licensed under (L)GPL
MAIN: Copyright 1st April 1995 - , CSC - IT Center for Science Ltd.
MAIN: Webpage http://www.csc.fi/elmer, Email elmeradm@csc.fi
MAIN: Version: 9.0 (Rev: afd75d4, Compiled: 2025-09-26)
MAIN:  Running in parallel using 128 tasks.
MAIN:  Running with just one thread per task.
MAIN:  HYPRE library linked in.
MAIN:  MUMPS library linked in.
MAIN:  MMG library linked in.
MAIN:  Lua interpreter linked in.
MAIN:  Zoltan library linked in.
MAIN: =============================================================
ParCommInit: Initialize #PEs: 128
ParCommInit: Initialize #PEs: 128
MAIN: 
MAIN: 
MAIN: -------------------------------------
MAIN: Reading Model: InitialiseVel.sif
LoadInputFile: Scanning input file: InitialiseVel.sif
LoadInputFile: Scanning only size info
LoadInputFile: First time visiting
LoadInputFile: Reading base load of sif file
CheckKeyword: Found keyword type assuming suffix 1 for: output variable 2
CheckKeyword: Found keyword type assuming suffix 1 for: output variable 2
CheckKeyword: Found keyword type assuming suffix 1 for: output variable 3
CheckKeyword: Found keyword type assuming suffix 1 for: output variable 3
CheckKeyword: Found keyword type assuming suffix 1 for: output variable 4
CheckKeyword: Found keyword type assuming suffix 1 for: output variable 4
CheckKeyword: Found keyword type assuming suffix 1 for: output variable 5
CheckKeyword: Found keyword type assuming suffix 1 for: output variable 5
CheckKeyword: Found keyword type assuming suffix 1 for: output variable 6
CheckKeyword: Found keyword type assuming suffix 1 for: output variable 6
CheckKeyword: Found keyword type assuming suffix 1 for: output variable 7
CheckKeyword: Found keyword type assuming suffix 1 for: output variable 7
CheckKeyword: Found keyword type assuming suffix 1 for: output variable 8
CheckKeyword: Found keyword type assuming suffix 1 for: output variable 8
CheckKeyword: Found keyword type assuming suffix 1 for: output variable 9
CheckKeyword: Found keyword type assuming suffix 1 for: output variable 9
OpenIncludeFile: Trying to include file: "Initialisation/Dimensional_ICs/bed_dim.xy"
OpenIncludeFile: Trying to include file: "Initialisation/Dimensional_ICs/Tb_dim.xy"
OpenIncludeFile: Trying to include file: "Initialisation/Dimensional_ICs/bed_dim.xy"
OpenIncludeFile: Trying to include file: "Initialisation/Dimensional_ICs/Tb_dim.xy"
OpenIncludeFile: Trying to include file: "Initialisation/Dimensional_ICs/bed_dim.xy"
OpenIncludeFile: Trying to include file: "Initialisation/Dimensional_ICs/Tb_dim.xy"
OpenIncludeFile: Trying to include file: "Initialisation/Dimensional_ICs/zb_dim.xy"
OpenIncludeFile: Trying to include file: "Initialisation/Dimensional_ICs/zb_dim.xy"
OpenIncludeFile: Trying to include file: "Initialisation/Dimensional_ICs/bed_dim.xy"
OpenIncludeFile: Trying to include file: "Initialisation/Dimensional_ICs/zs_dim.xy"
CheckKeyword: Found keyword type assuming suffix 1 for: exported variable 2
CheckKeyword: Found keyword type assuming suffix 1 for: exported variable 2
CheckKeyword: Found keyword type assuming suffix 1 for: operator 2
CheckKeyword: Found keyword type assuming suffix 1 for: operator 2
CheckKeyword: Found keyword type assuming suffix 1 for: exported variable 2
CheckKeyword: Found keyword type assuming suffix 1 for: exported variable 2
CheckKeyword: Found keyword type assuming suffix 1 for: exported variable 2
CheckKeyword: Found keyword type assuming suffix 1 for: exported variable 2
OpenIncludeFile: Trying to include file:  ./SRC/linsys/mumps.sif
CheckKeyword: Found keyword type assuming suffix 1 for: exported variable 2
CheckKeyword: Found keyword type assuming suffix 1 for: exported variable 2
OpenIncludeFile: Trying to include file: "Initialisation/Dimensional_ICs/bed_dim.xy"
LoadInputFile: Loading input file: InitialiseVel.sif
LoadInputFile: Reading base load of sif file
CheckKeyword:  Unlisted keyword: [gravity norm] in section: [constants]
CheckKeyword:  Unlisted keyword: [fresh water density] in section: [constants]
CheckKeyword:  Unlisted keyword: [water density] in section: [constants]
CheckKeyword:  Unlisted keyword: [ice density] in section: [constants]
CheckKeyword:  Unlisted keyword: [rock density] in section: [constants]
CheckKeyword:  Unlisted keyword: [reference temperature] in section: [constants]
CheckKeyword:  Unlisted keyword: [reference pressure] in section: [constants]
CheckKeyword:  Unlisted keyword: [sea level] in section: [constants]
CheckKeyword:  Unlisted keyword: [preserve baseline] in section: [simulation]
CheckKeyword:  Unlisted keyword: [extruded bc layers] in section: [simulation]
CheckKeyword:  Unlisted keyword: [extruded baseline layer] in section: [simulation]
CheckKeyword: Found keyword type assuming suffix 1 for: output variable 2
CheckKeyword: Found keyword type assuming suffix 1 for: output variable 2
CheckKeyword: Found keyword type assuming suffix 1 for: output variable 3
CheckKeyword: Found keyword type assuming suffix 1 for: output variable 3
CheckKeyword: Found keyword type assuming suffix 1 for: output variable 4
CheckKeyword: Found keyword type assuming suffix 1 for: output variable 4
CheckKeyword: Found keyword type assuming suffix 1 for: output variable 5
CheckKeyword: Found keyword type assuming suffix 1 for: output variable 5
CheckKeyword: Found keyword type assuming suffix 1 for: output variable 6
CheckKeyword: Found keyword type assuming suffix 1 for: output variable 6
CheckKeyword: Found keyword type assuming suffix 1 for: output variable 7
CheckKeyword: Found keyword type assuming suffix 1 for: output variable 7
CheckKeyword: Found keyword type assuming suffix 1 for: output variable 8
CheckKeyword: Found keyword type assuming suffix 1 for: output variable 8
CheckKeyword: Found keyword type assuming suffix 1 for: output variable 9
CheckKeyword: Found keyword type assuming suffix 1 for: output variable 9
CheckKeyword:  Unlisted keyword: [bedrock] in section: [initial condition 1]
OpenIncludeFile: Trying to include file: "Initialisation/Dimensional_ICs/bed_dim.xy"
OpenIncludeFile: Trying to include file: "Initialisation/Dimensional_ICs/Tb_dim.xy"
CheckKeyword:  Unlisted keyword: [bedrock] in section: [initial condition 2]
OpenIncludeFile: Trying to include file: "Initialisation/Dimensional_ICs/bed_dim.xy"
OpenIncludeFile: Trying to include file: "Initialisation/Dimensional_ICs/Tb_dim.xy"
CheckKeyword:  Unlisted keyword: [bedrock] in section: [initial condition 3]
OpenIncludeFile: Trying to include file: "Initialisation/Dimensional_ICs/bed_dim.xy"
OpenIncludeFile: Trying to include file: "Initialisation/Dimensional_ICs/Tb_dim.xy"
CheckKeyword:  Unlisted keyword: [zb] in section: [initial condition 4]
OpenIncludeFile: Trying to include file: "Initialisation/Dimensional_ICs/zb_dim.xy"
CheckKeyword:  Unlisted keyword: [refzb] in section: [initial condition 4]
OpenIncludeFile: Trying to include file: "Initialisation/Dimensional_ICs/zb_dim.xy"
CheckKeyword:  Unlisted keyword: [bedrock] in section: [initial condition 4]
OpenIncludeFile: Trying to include file: "Initialisation/Dimensional_ICs/bed_dim.xy"
CheckKeyword:  Unlisted keyword: [zs] in section: [initial condition 5]
OpenIncludeFile: Trying to include file: "Initialisation/Dimensional_ICs/zs_dim.xy"
CheckKeyword:  Unlisted keyword: [partial vertical meshupdate 1] in section: [body force 1]
CheckKeyword:  Unlisted keyword: [partial vertical meshupdate 2] in section: [body force 1]
CheckKeyword:  Unlisted keyword: [temperature upper limit] in section: [body force 1]
CheckKeyword:  Unlisted keyword: [partial vertical meshupdate 1] in section: [body force 2]
CheckKeyword:  Unlisted keyword: [partial vertical meshupdate 2] in section: [body force 2]
CheckKeyword:  Unlisted keyword: [temperature upper limit] in section: [body force 2]
CheckKeyword:  Unlisted keyword: [temperature upper limit] in section: [body force 3]
CheckKeyword:  Unlisted keyword: [zb accumulation] in section: [body force 4]
CheckKeyword:  Unlisted keyword: [flow solver name] in section: [body force 4]
CheckKeyword:  Unlisted keyword: [temperature upper limit] in section: [body force 4]
CheckKeyword:  Unlisted keyword: [zs accumulation flux 3] in section: [body force 5]
CheckKeyword:  Unlisted keyword: [temperature upper limit] in section: [body force 5]
CheckKeyword:  Unlisted keyword: [heat capacity scaling factor] in section: [material 3]
CheckKeyword:  Unlisted keyword: [heat conductivity scaling factor] in section: [material 3]
CheckKeyword:  Unlisted keyword: [cauchy] in section: [material 3]
CheckKeyword:  Unlisted keyword: [max zb] in section: [material 3]
CheckKeyword:  Unlisted keyword: [min zs] in section: [material 3]
CheckKeyword:  Unlisted keyword: [max zs] in section: [material 3]
CheckKeyword:  Unlisted keyword: [temperature upper limit] in section: [material 3]
CheckKeyword:  Unlisted keyword: [minimum height] in section: [solver 1]
CheckKeyword:  Unlisted keyword: [mesh update variable] in section: [solver 1]
CheckKeyword: Found keyword type assuming suffix 1 for: exported variable 2
CheckKeyword: Found keyword type assuming suffix 1 for: exported variable 2
CheckKeyword:  Unlisted keyword: [adjust surface] in section: [solver 1]
CheckKeyword: Found keyword type assuming suffix 1 for: operator 2
CheckKeyword: Found keyword type assuming suffix 1 for: operator 2
CheckKeyword:  Unlisted keyword: [toler] in section: [solver 4]
CheckKeyword:  Unlisted keyword: [bedrock variable] in section: [solver 4]
CheckKeyword: Found keyword type assuming suffix 1 for: exported variable 2
CheckKeyword: Found keyword type assuming suffix 1 for: exported variable 2
CheckKeyword:  Unlisted keyword: [relaxation factor] in section: [solver 5]
CheckKeyword:  Unlisted keyword: [relaxation factor] in section: [solver 6]
CheckKeyword:  Unlisted keyword: [computeall] in section: [solver 7]
CheckKeyword:  Unlisted keyword: [minimum height] in section: [solver 8]
CheckKeyword:  Unlisted keyword: [mesh update variable] in section: [solver 8]
CheckKeyword: Found keyword type assuming suffix 1 for: exported variable 2
CheckKeyword: Found keyword type assuming suffix 1 for: exported variable 2
CheckKeyword:  Unlisted keyword: [adjust surface] in section: [solver 8]
OpenIncludeFile: Trying to include file:  ./SRC/linsys/mumps.sif
CheckKeyword: Found keyword type assuming suffix 1 for: exported variable 2
CheckKeyword: Found keyword type assuming suffix 1 for: exported variable 2
CheckKeyword:  Unlisted keyword: [nonlinear system relaxation before] in section: [solver 11]
CheckKeyword:  Unlisted keyword: [toler] in section: [solver 13]
CheckKeyword:  Unlisted keyword: [bedrock variable] in section: [solver 13]
CheckKeyword:  Unlisted keyword: [partial vertical meshupdate 1] in section: [boundary condition 5]
CheckKeyword:  Unlisted keyword: [partial vertical meshupdate 2] in section: [boundary condition 5]
CheckKeyword:  Unlisted keyword: [temperature flux bc] in section: [boundary condition 5]
CheckKeyword:  Unlisted keyword: [partial vertical meshupdate 1] in section: [boundary condition 6]
CheckKeyword:  Unlisted keyword: [partial vertical meshupdate 2] in section: [boundary condition 6]
CheckKeyword:  Unlisted keyword: [partial vertical meshupdate 1] in section: [boundary condition 7]
CheckKeyword:  Unlisted keyword: [partial vertical meshupdate 2] in section: [boundary condition 7]
CheckKeyword:  Unlisted keyword: [partial vertical meshupdate 1] in section: [boundary condition 8]
CheckKeyword:  Unlisted keyword: [partial vertical meshupdate 2] in section: [boundary condition 8]
CheckKeyword:  Unlisted keyword: [partial vertical meshupdate 1] in section: [boundary condition 9]
CheckKeyword:  Unlisted keyword: [partial vertical meshupdate 2] in section: [boundary condition 9]
CheckKeyword:  Unlisted keyword: [temperature flux bc] in section: [boundary condition 9]
CheckKeyword:  Unlisted keyword: [partial vertical meshupdate 1] in section: [boundary condition 10]
CheckKeyword:  Unlisted keyword: [partial vertical meshupdate 2] in section: [boundary condition 10]
CheckKeyword:  Unlisted keyword: [partial vertical meshupdate 1] in section: [boundary condition 11]
CheckKeyword:  Unlisted keyword: [partial vertical meshupdate 2] in section: [boundary condition 11]
CheckKeyword:  Unlisted keyword: [partial vertical meshupdate 1] in section: [boundary condition 12]
CheckKeyword:  Unlisted keyword: [partial vertical meshupdate 2] in section: [boundary condition 12]
CheckKeyword:  Unlisted keyword: [partial vertical meshupdate 1] in section: [boundary condition 13]
CheckKeyword:  Unlisted keyword: [partial vertical meshupdate 2] in section: [boundary condition 13]
CheckKeyword:  Unlisted keyword: [partial vertical meshupdate 3] in section: [boundary condition 13]
CheckKeyword:  Unlisted keyword: [temperature flux bc] in section: [boundary condition 13]
Loading user function library: [./SRC/Buoyancy.so]...[SeaPressure]
CheckKeyword:  Unlisted keyword: [compute sea pressure] in section: [boundary condition 14]
CheckKeyword:  Unlisted keyword: [partial vertical meshupdate 1] in section: [boundary condition 14]
CheckKeyword:  Unlisted keyword: [partial vertical meshupdate 2] in section: [boundary condition 14]
CheckKeyword:  Unlisted keyword: [computenormal] in section: [boundary condition 14]
CheckKeyword:  Unlisted keyword: [partial vertical meshupdate 1] in section: [boundary condition 15]
CheckKeyword:  Unlisted keyword: [partial vertical meshupdate 2] in section: [boundary condition 15]
CheckKeyword:  Unlisted keyword: [partial vertical meshupdate 3] in section: [boundary condition 15]
CheckKeyword:  Unlisted keyword: [partial vertical meshupdate 1] in section: [boundary condition 16]
CheckKeyword:  Unlisted keyword: [partial vertical meshupdate 2] in section: [boundary condition 16]
CheckKeyword:  Unlisted keyword: [partial vertical meshupdate 3] in section: [boundary condition 16]
CheckKeyword:  Unlisted keyword: [partial vertical meshupdate 1] in section: [boundary condition 17]
CheckKeyword:  Unlisted keyword: [partial vertical meshupdate 2] in section: [boundary condition 17]
CheckKeyword:  Unlisted keyword: [partial vertical meshupdate 3] in section: [boundary condition 17]
CheckKeyword:  Unlisted keyword: [temperature flux bc] in section: [boundary condition 17]
CheckKeyword:  Unlisted keyword: [bedrock] in section: [boundary condition 18]
OpenIncludeFile: Trying to include file: "Initialisation/Dimensional_ICs/bed_dim.xy"
CheckKeyword:  Unlisted keyword: [partial vertical meshupdate 1] in section: [boundary condition 18]
CheckKeyword:  Unlisted keyword: [partial vertical meshupdate 2] in section: [boundary condition 18]
CheckKeyword:  Unlisted keyword: [partial vertical meshupdate 3] in section: [boundary condition 18]
CheckKeyword:  Unlisted keyword: [zb condition] in section: [boundary condition 19]
CheckKeyword:  Unlisted keyword: [flow solution name] in section: [boundary condition 19]
Loading user function library: [./SRC/Buoyancy.so]...[SeaSpring]
CheckKeyword:  Unlisted keyword: [compute sea spring] in section: [boundary condition 19]
Loading user function library: [ElmerIceUSF]...[SlidCoef_Contact]
Loading user function library: [ElmerIceUSF]...[SlidCoef_Contact]
Loading user function library: [./SRC/Buoyancy.so]...[SeaPressure]
CheckKeyword:  Unlisted keyword: [compute sea pressure] in section: [boundary condition 19]
CheckKeyword:  Unlisted keyword: [computenormal condition] in section: [boundary condition 19]
CheckKeyword:  Unlisted keyword: [grounding line moves] in section: [boundary condition 19]
CheckKeyword:  Unlisted keyword: [grounding line definition] in section: [boundary condition 19]
CheckKeyword:  Unlisted keyword: [test contact tolerance] in section: [boundary condition 19]
CheckKeyword:  Unlisted keyword: [sliding law] in section: [boundary condition 19]
CheckKeyword:  Unlisted keyword: [weertman exponent] in section: [boundary condition 19]
CheckKeyword:  Unlisted keyword: [weertman friction coefficient] in section: [boundary condition 19]
CheckKeyword:  Unlisted keyword: [weertman linear velocity] in section: [boundary condition 19]
CheckKeyword:  Unlisted keyword: [partial vertical meshupdate 1] in section: [boundary condition 19]
CheckKeyword:  Unlisted keyword: [partial vertical meshupdate 2] in section: [boundary condition 19]
CheckKeyword:  Unlisted keyword: [partial vertical meshupdate 3] in section: [boundary condition 19]
CheckKeyword:  Unlisted keyword: [friction loads] in section: [boundary condition 19]
CheckKeyword:  Unlisted keyword: [calculate temperature boundary weights] in section: [boundary condition 19]
CheckKeyword:  Unlisted keyword: [fssa theta] in section: [boundary condition 19]
CheckKeyword:  Unlisted keyword: [fssa flag] in section: [boundary condition 19]
CheckKeyword:  Unlisted keyword: [fssa accumulation] in section: [boundary condition 19]
CheckKeyword:  Unlisted keyword: [computenormal] in section: [boundary condition 20]
CheckKeyword:  Unlisted keyword: [partial vertical meshupdate 1] in section: [boundary condition 20]
CheckKeyword:  Unlisted keyword: [partial vertical meshupdate 2] in section: [boundary condition 20]
CheckKeyword:  Unlisted keyword: [partial vertical meshupdate 3] in section: [boundary condition 20]
CheckKeyword:  Unlisted keyword: [fssa theta] in section: [boundary condition 20]
CheckKeyword:  Unlisted keyword: [fssa flag] in section: [boundary condition 20]
CheckKeyword:  Unlisted keyword: [fssa accumulation] in section: [boundary condition 20]
LoadInputFile: Number of BCs: 20
LoadInputFile: Number of Body Forces: 5
LoadInputFile: Number of Initial Conditions: 5
LoadInputFile: Number of Materials: 3
LoadInputFile: Number of Equations: 5
LoadInputFile: Number of Solvers: 13
LoadInputFile: Number of Bodies: 5
ListTagKeywords: Setting weight for keywords!
ListTagKeywords: No parameters width suffix: normalize by area
ListTagKeywords: Setting weight for keywords!
ListTagKeywords: No parameters width suffix: normalize by volume
MAIN: 
MAIN: -------------------------------------
MAIN:  Steady state iteration:            1
MAIN: -------------------------------------
MAIN: 
BiCGStabl:       36 0.6437E-12 0.6101E-12
ComputeChange: NS (ITER=1) (NRM,RELC): (  50.494316      2.0000000     ) :: partial update
ComputeNormalSolver: Computing Normal Vector for Nodes
ComputeNormalSolver: End
SeaPressure: Variable Sea level not found. Setting to 0.0
SlidCoef_Contact: Grounding Line Defined as discontinuous
SlidCoef_Contact: GL may move by default
SlidCoef_Contact: If you want to fix the Grounding Line, put the keyword "Grounding line moves" to False
SlidCoef_Contact: Contact tested for a tolerance of 0.10000000E-02
SlidCoef_Contact: far inland nodes have the possibility to detach by default
SlidCoef_Contact: to avoid detachment (when bedrock is well below sea level),
SlidCoef_Contact: use the keyword "non detachment inland distance" to the distance you wish
SlidCoef_Contact: This works with the DistanceSolver
Sliding_Weertman:  Flow Solver Name:Flow Solution SSA: F
ComputeChange: NS (ITER=1) (NRM,RELC): (  32.169844      2.0000000     ) :: stokes-vec
ComputeChange: NS (ITER=2) (NRM,RELC): (  42.893126     0.28571430     ) :: stokes-vec
ComputeChange: NS (ITER=3) (NRM,RELC): (  46.467553     0.80000003E-01 ) :: stokes-vec
ComputeChange: NS (ITER=4) (NRM,RELC): (  47.659029     0.25316457E-01 ) :: stokes-vec
ComputeChange: NS (ITER=5) (NRM,RELC): (  48.056188     0.82987555E-02 ) :: stokes-vec
ComputeChange: NS (ITER=6) (NRM,RELC): (  48.188574     0.27510317E-02 ) :: stokes-vec
ComputeChange: NS (ITER=7) (NRM,RELC): (  48.232703     0.91533184E-03 ) :: stokes-vec
SlidCoef_Contact: FLOW SOLVER HAS SLIGHTLY CONVERGED: look for new basal conditions
ComputeChange: NS (ITER=8) (NRM,RELC): (  48.247412     0.30492454E-03 ) :: stokes-vec
ComputeChange: NS (ITER=9) (NRM,RELC): (  48.252315     0.10162086E-03 ) :: stokes-vec
ComputeChange: NS (ITER=10) (NRM,RELC): (  48.253950     0.33871324E-04 ) :: stokes-vec
ComputeChange: NS (ITER=11) (NRM,RELC): (  48.254495     0.11290186E-04 ) :: stokes-vec
ComputeChange: NS (ITER=12) (NRM,RELC): (  48.254676     0.37633672E-05 ) :: stokes-vec
ComputeChange: SS (ITER=1) (NRM,RELC): (  48.254676      2.0000000     ) :: stokes-vec
ComputeChange: NS (ITER=1) (NRM,RELC): ( 0.63249392E-03  2.0000000     ) :: deformationalheat
ComputeChange: SS (ITER=1) (NRM,RELC): ( 0.63249392E-03  2.0000000     ) :: deformationalheat
GetHydrostaticLoads: Memory allocation done.
Update Periodic Nodes for: fwater 1: Start
UpdatePeriodicNodes: All Done
Update Periodic Nodes for: fwater 2: Start
UpdatePeriodicNodes: All Done
Update Periodic Nodes for: fwater 3: Start
UpdatePeriodicNodes: All Done
GetHydrostaticLoads: End
ComputeChange: SS (ITER=1) (NRM,RELC): (  4706188.7      2.0000000     ) :: fw
GroundedSolver: Computing grounded mask from geometry
GroundedSolver: Memory allocation done.
ComputeChange: SS (ITER=1) (NRM,RELC): ( 0.99946851      2.0000000     ) :: groundedmask
MAIN: 
MAIN: -------------------------------------
MAIN:  Steady state iteration:            2
MAIN: -------------------------------------
MAIN: 
ComputeChange: NS (ITER=1) (NRM,RELC): (  50.494316      0.0000000     ) :: partial update
ComputeNormalSolver: Computing Normal Vector for Nodes
ComputeNormalSolver: End
SeaPressure: Variable Sea level not found. Setting to 0.0
ComputeChange: NS (ITER=1) (NRM,RELC): (  336.65868      1.4985399     ) :: stokes-vec
ComputeChange: NS (ITER=2) (NRM,RELC): (  446.62372     0.28078005     ) :: stokes-vec
ComputeChange: NS (ITER=3) (NRM,RELC): (  483.36620     0.79016934E-01 ) :: stokes-vec
ComputeChange: NS (ITER=4) (NRM,RELC): (  495.62028     0.25034235E-01 ) :: stokes-vec
ComputeChange: NS (ITER=5) (NRM,RELC): (  499.70564     0.82090731E-02 ) :: stokes-vec
ComputeChange: NS (ITER=6) (NRM,RELC): (  501.06749     0.27216040E-02 ) :: stokes-vec
ComputeChange: NS (ITER=7) (NRM,RELC): (  501.52145     0.90557374E-03 ) :: stokes-vec
SlidCoef_Contact: FLOW SOLVER HAS SLIGHTLY CONVERGED: look for new basal conditions
ComputeChange: NS (ITER=8) (NRM,RELC): (  501.67277     0.30167743E-03 ) :: stokes-vec
ComputeChange: NS (ITER=9) (NRM,RELC): (  501.72321     0.10053910E-03 ) :: stokes-vec
ComputeChange: NS (ITER=10) (NRM,RELC): (  501.74002     0.33510898E-04 ) :: stokes-vec
ComputeChange: NS (ITER=11) (NRM,RELC): (  501.74563     0.11170026E-04 ) :: stokes-vec
ComputeChange: NS (ITER=12) (NRM,RELC): (  501.74750     0.37232477E-05 ) :: stokes-vec
ComputeChange: SS (ITER=2) (NRM,RELC): (  501.74750      1.6490583     ) :: stokes-vec
ComputeChange: NS (ITER=1) (NRM,RELC): ( 0.40721426E-03 0.43335171     ) :: deformationalheat
ComputeChange: SS (ITER=2) (NRM,RELC): ( 0.40721426E-03 0.43335171     ) :: deformationalheat
Update Periodic Nodes for: fwater 1: Start
UpdatePeriodicNodes: All Done
Update Periodic Nodes for: fwater 2: Start
UpdatePeriodicNodes: All Done
Update Periodic Nodes for: fwater 3: Start
UpdatePeriodicNodes: All Done
GetHydrostaticLoads: End
ComputeChange: SS (ITER=2) (NRM,RELC): (  4706188.7      0.0000000     ) :: fw
GroundedSolver: Computing grounded mask from geometry
ComputeChange: SS (ITER=2) (NRM,RELC): ( 0.99946851      0.0000000     ) :: groundedmask
MAIN: 
MAIN: -------------------------------------
MAIN:  Steady state iteration:            3
MAIN: -------------------------------------
MAIN: 
ComputeChange: NS (ITER=1) (NRM,RELC): (  50.494316      0.0000000     ) :: partial update
ComputeNormalSolver: Computing Normal Vector for Nodes
ComputeNormalSolver: End
SeaPressure: Variable Sea level not found. Setting to 0.0
ComputeChange: NS (ITER=1) (NRM,RELC): (  501.74812     0.12469344E-05 ) :: stokes-vec
ComputeChange: SS (ITER=3) (NRM,RELC): (  501.74812     0.12469344E-05 ) :: stokes-vec
ComputeChange: NS (ITER=1) (NRM,RELC): ( 0.40721577E-03 0.36979449E-05 ) :: deformationalheat
ComputeChange: SS (ITER=3) (NRM,RELC): ( 0.40721577E-03 0.36979449E-05 ) :: deformationalheat
Update Periodic Nodes for: fwater 1: Start
UpdatePeriodicNodes: All Done
Update Periodic Nodes for: fwater 2: Start
UpdatePeriodicNodes: All Done
Update Periodic Nodes for: fwater 3: Start
UpdatePeriodicNodes: All Done
GetHydrostaticLoads: End
ComputeChange: SS (ITER=3) (NRM,RELC): (  4706188.7      0.0000000     ) :: fw
GroundedSolver: Computing grounded mask from geometry
ComputeChange: SS (ITER=3) (NRM,RELC): ( 0.99946851      0.0000000     ) :: groundedmask
MAIN: *** Elmer Solver: ALL DONE ***
MAIN: The end
SOLVER TOTAL TIME(CPU,REAL):        27.91       31.97
ELMER SOLVER FINISHED AT: 2026/03/17 13:06:43
